622

C  22.5485755826  5.5820600011  -3.2870947147  -121  0  0  0  0
C  21.9383465577  5.8302591603  -1.9101944582  -122  0  0  0  0
H  23.5647876827  5.9834189707  -3.3477291873  -111  0  0  0  0
H  21.9531842747  6.0528605261  -4.0768326489  -111  0  0  0  0
H  22.6056433  4.5093465527  -3.5067374545  -111  0  0  0  0
H  21.9381422972  6.9051102055  -1.6904701856  -112  0  0  0  0
H  22.5741744608  5.3668104956  -1.1434733171  -112  0  0  0  0
C  20.511485695  5.2952374223  -1.7842964866  -122  0  0  0  0
C  19.9125191491  5.4956604191  -0.3868919077  -122  0  0  0  0
H  20.5024262199  4.2274873281  -2.0586243  -112  0  0  0  0
H  19.8641890193  5.7802739621  -2.5259817294  -112  0  0  0  0
H  20.6395540385  5.2071044512  0.3916428603  -112  0  0  0  0
C  18.5919008212  4.7567608831  -0.155785637  -122  0  0  0  0
H  19.75937277  6.5692107796  -0.218706649  -112  0  0  0  0
C  18.0262660205  4.9920518978  1.2435330551  -121  0  0  0  0
H  18.7352988357  3.6761917629  -0.3144047585  -112  0  0  0  0
H  17.8635769757  5.0709379109  -0.9139712276  -112  0  0  0  0
H  18.737182509  4.673324078  2.0147540399  -111  0  0  0  0
H  17.0925680243  4.4421498151  1.3948412372  -111  0  0  0  0
H  17.8205435591  6.0553772998  1.4070315473  -111  0  0  0  0
H  20.9858138782  3.4205267302  -0.2161622802  0  23  0  0  0
Al  23.1196199981  3.0808860447  0.9625702767  -2  25  23  26  24
O  21.624609985  2.6931260221  -0.1018732642  -1  21  22  0  0
O  23.4097304215  1.546911787  1.6774612748  -1  22  35  0  0
O  24.34305821  3.6028385649  -0.0923906396  -1  27  22  0  0
O  22.4378251119  4.3241403836  1.9052309822  -1  22  39  0  0
Si  25.2681162497  3.0775321515  -1.2840462358  -2  28  44  43  25
O  24.388243205  2.5768466172  -2.5926311416  -1  29  27  0  0
Si  23.4907812558  1.3152268776  -3.0705678685  -2  53  52  28  30
O  22.5144722392  0.8156916408  -1.8165177308  -1  29  31  0  0
Si  21.260890427  1.2436452859  -0.8954734495  -2  30  40  32  0
O  20.8929642742  0.1193014098  0.1806254752  -1  31  33  0  0
Si  21.3152334436  -0.9237864351  1.3905373673  -2  32  54  55  34
O  21.7344047061  -0.1675687813  2.7658285362  -1  33  35  0  0
Si  23.0260631358  0.8118759512  3.0567808498  -2  24  34  42  36
O  22.6045561398  1.8209284063  4.2660731739  -1  35  37  0  0
Si  23.0711252755  3.0726466369  5.2131920193  -2  38  36  62  63
O  23.6361500621  4.3191785874  4.317425356  -1  39  37  0  0
Si  23.0500088213  5.2378103674  3.0805928546  -2  26  46  45  38
O  19.9840129165  1.7266001074  -1.7509967875  -1  41  31  0  0
Si  19.1161816154  1.2803749448  -3.0694924875  -2  57  56  58  40
O  24.2622  -0.0828  3.4789  -1  35  47  0  0
O  26.2001  1.8551  -0.8058  -1  48  27  0  0
O  26.1222  4.3091  -1.7455  -1  49  27  0  0
O  21.8083  6.0862  3.5495  -1  39  50  0  0
O  24.2622  6.169  2.6073  -1  51  39  0  0
Si  25.2312  -1.2927  3.0456  -23  60  59  42  61
Si  27.3906  0.8862  -1.2927  -23  64  66  43  65
Si  27.3857  5.2001  -1.2927  -23  67  44  68  69
Si  21.2994  6.9724  4.7935  -23  45  72  70  71
Si  25.2312  7.379  3.0407  -23  75  46  73  74
O  24.4278  0.0828  -3.4789  -1  76  29  0  0
O  22.5678  1.7455  -4.3091  -1  77  29  0  0
O  22.4899  -1.8551  0.8058  -1  78  33  0  0
O  20.0359  -1.7772  1.7455  -1  79  33  0  0
O  18.2587  2.5368  -3.5495  -1  80  41  0  0
O  20.1138  0.8058  -4.2312  -1  77  41  0  0
O  18.176  0.0828  -2.6073  -1  41  81  0  0
O  24.345  -2.5368  2.5368  -1  78  47  0  0
O  26.2001  -0.8058  1.8551  -1  82  47  0  0
O  26.1222  -1.7455  4.3091  -1  47  83  0  0
O  21.8083  3.5495  6.0862  -1  37  84  0  0
O  24.2622  2.6073  6.169  -1  37  85  0  0
O  26.8818  0.0  -2.5368  -1  76  48  0  0
O  27.8239  -0.0828  -0.0828  -1  48  82  0  0
O  28.6541  1.7772  -1.7455  -1  48  86  0  0
O  27.8945  6.0862  -2.5368  -1  87  49  0  0
O  28.5762  4.2312  -0.8058  -1  49  86  0  0
O  26.9523  6.169  -0.0828  -1  49  88  0  0
O  22.4899  7.9413  5.2804  -1  89  50  0  0
O  20.8661  6.0035  6.0035  -1  50  84  0  0
O  20.0359  7.8634  4.3407  -1  604  50  0  0
O  24.345  8.623  3.5495  -1  51  89  0  0
O  26.2001  6.8921  4.2312  -1  51  90  0  0
O  26.1222  7.8318  1.7772  -1  88  51  0  0
Si  25.6377  -0.8862  -3.0456  -23  92  52  64  91
Si  21.3043  1.2927  -5.2001  -22  94  93  53  57
Si  23.4588  -3.0456  1.2927  -23  95  54  96  59
Si  19.1449  -3.0407  1.2927  -23  99  98  55  97
Si  17.3726  3.0456  -4.7935  -23  101  100  102  56
Si  16.966  -0.8862  -3.0407  -23  104  103  58  105
Si  27.3906  -1.2927  0.8862  -2  65  106  107  60
Si  27.3857  -1.2927  5.2001  -2  109  61  108  110
Si  21.2994  4.7935  6.9724  -23  71  62  112  111
Si  25.2312  3.0407  7.379  -23  63  114  115  113
Si  29.5451  3.0407  -1.2927  -2  116  66  68  117
Si  29.1385  6.9724  -3.0456  -2  120  119  67  118
Si  27.3857  7.379  0.8862  -2  69  121  75  122
Si  23.4588  9.1318  4.7935  -2  73  124  70  123
Si  27.3906  7.379  5.2001  -2  74  128  126  127
O  25.1508  -1.8551  -1.8551  -1  76  129  0  0
O  26.0905  -1.7772  -4.3091  -1  130  76  0  0
O  20.7955  2.5368  -6.0862  -1  131  77  0  0
O  21.7376  0.0828  -6.169  -1  132  77  0  0
O  24.4278  -3.4789  0.0828  -1  129  78  0  0
O  22.5678  -4.3091  1.7455  -1  78  133  0  0
O  18.2587  -3.5495  2.5368  -1  79  134  0  0
O  20.1138  -4.2312  0.8058  -1  79  133  0  0
O  18.176  -2.6073  0.0828  -1  135  79  0  0
O  16.4037  1.8551  -5.2804  -1  80  136  0  0
O  18.3415  3.4789  -6.0035  -1  131  80  0  0
O  16.4816  4.3091  -4.3407  -1  80  137  0  0
O  15.722  0.0  -3.5495  -1  136  81  0  0
O  17.4529  -1.8551  -4.2312  -1  138  81  0  0
O  16.5132  -1.7772  -1.7772  -1  81  135  0  0
O  26.8818  -2.5368  0.0  -1  129  82  0  0
O  28.6541  -1.7455  1.7772  -1  82  139  0  0
O  27.8945  -2.5368  6.0862  -1  83  140  0  0
O  28.5762  -0.8058  4.2312  -1  139  83  0  0
O  26.9523  -0.0828  6.169  -1  83  141  0  0
O  22.4899  5.2804  7.9413  -1  84  142  0  0
O  20.0359  4.3407  7.8634  -1  84  605  0  0
O  24.345  3.5495  8.623  -1  85  142  0  0
O  26.2001  4.2312  6.8921  -1  143  85  0  0
O  26.1222  1.7772  7.8318  -1  85  141  0  0
O  30.4312  3.5495  -2.5368  -1  144  86  0  0
O  30.514  2.6073  -0.0828  -1  86  145  0  0
O  29.6254  7.9413  -1.8551  -1  87  146  0  0
O  30.3485  6.0035  -3.4789  -1  144  87  0  0
O  28.6857  7.8634  -4.3091  -1  147  87  0  0
O  27.8945  8.623  0.0  -1  146  88  0  0
O  28.5762  6.8921  1.8551  -1  88  148  0  0
O  24.4278  9.5651  6.0035  -1  89  149  0  0
O  22.5678  10.3953  4.3407  -1  150  89  0  0
O  20.1138  10.3174  5.2804  -1  150  606  0  0
O  26.8818  8.623  6.0862  -1  90  149  0  0
O  27.8239  6.169  6.169  -1  90  143  0  0
O  28.6541  7.8318  4.3091  -1  148  90  0  0
Si  25.6377  -3.0456  -0.8862  -2  91  151  106  95
Si  25.6377  -3.0407  -5.2001  -2  154  152  92  153
Si  19.5515  3.0456  -6.9724  -2  155  156  93  101
Si  21.3043  -0.8862  -7.379  -2  157  159  158  94
Si  21.3043  -5.2001  1.2927  -2  161  98  96  160
Si  17.3726  -4.7935  3.0456  -2  162  97  163  164
Si  16.966  -3.0407  -0.8862  -2  166  105  165  99
Si  15.2132  0.8862  -4.7935  -2  167  100  168  103
Si  15.2181  5.2001  -4.7935  -2  171  170  102  169
Si  16.966  -3.0456  -5.2001  -2  173  172  174  104
Si  29.5451  -1.2927  3.0407  -2  107  176  175  109
Si  29.1385  -3.0456  6.9724  -2  178  108  179  177
Si  27.3857  0.8862  7.379  -2  110  181  115  180
Si  23.4588  4.7935  9.1318  -2  111  113  182  183
Si  27.3906  5.2001  7.379  -2  127  114  186  185
Si  31.3174  4.7935  -3.0456  -2  188  119  116  187
Si  31.724  3.0407  0.8862  -2  117  189  191  190
Si  29.1385  9.1318  -0.8862  -2  118  193  121  192
Si  29.1385  9.1269  -5.2001  -2  196  194  120  195
Si  29.5451  7.379  3.0456  -2  122  197  198  128
Si  25.6377  9.1318  6.9724  -2  123  126  200  199
Si  21.3043  11.2863  4.7935  -2  201  124  125  202
O  26.0905  -4.3091  -1.7772  -1  203  129  0  0
O  26.8818  -3.5495  -6.0862  -1  204  130  0  0
O  25.1508  -4.2312  -4.2312  -1  130  203  0  0
O  24.4278  -2.6073  -6.169  -1  205  130  0  0
O  19.0646  1.8551  -7.9413  -1  206  131  0  0
O  20.0043  4.3091  -7.8634  -1  207  131  0  0
O  20.7955  0.0  -8.623  -1  206  132  0  0
O  20.1138  -1.8551  -6.8921  -1  132  208  0  0
O  22.5678  -1.7772  -7.8318  -1  205  132  0  0
O  20.7955  -6.0862  2.5368  -1  133  209  0  0
O  21.7376  -6.169  0.0828  -1  210  133  0  0
O  16.4037  -5.2804  1.8551  -1  211  134  0  0
O  18.3415  -6.0035  3.4789  -1  134  209  0  0
O  16.4816  -4.3407  4.3091  -1  134  212  0  0
O  15.722  -3.5495  0.0  -1  135  211  0  0
O  17.4529  -4.2312  -1.8551  -1  213  135  0  0
O  14.7798  -0.0828  -6.0035  -1  214  136  0  0
O  13.9497  1.7772  -4.3407  -1  136  215  0  0
O  14.7093  6.0862  -3.5495  -1  137  607  0  0
O  14.0276  4.2312  -5.2804  -1  215  137  0  0
O  15.6514  6.169  -6.0035  -1  216  137  0  0
O  15.722  -2.5368  -6.0862  -1  214  138  0  0
O  18.176  -3.4789  -6.169  -1  208  138  0  0
O  16.5132  -4.3091  -4.3091  -1  138  213  0  0
O  30.4312  -2.5368  3.5495  -1  139  217  0  0
O  30.514  -0.0828  2.6073  -1  139  218  0  0
O  29.6254  -1.8551  7.9413  -1  140  219  0  0
O  30.3485  -3.4789  6.0035  -1  217  140  0  0
O  28.6857  -4.3091  7.8634  -1  140  220  0  0
O  27.8945  0.0  8.623  -1  141  219  0  0
O  28.5762  1.8551  6.8921  -1  221  141  0  0
O  24.4278  6.0035  9.5651  -1  142  222  0  0
O  22.5678  4.3407  10.3953  -1  142  223  0  0
O  20.1138  5.2804  10.3174  -1  608  223  0  0
O  26.8818  6.0862  8.623  -1  143  222  0  0
O  28.6541  4.3091  7.8318  -1  143  221  0  0
O  32.2863  5.2804  -1.8551  -1  144  224  0  0
O  32.2084  4.3407  -4.3091  -1  225  144  0  0
O  32.968  3.5495  0.0  -1  224  145  0  0
O  31.2371  4.2312  1.8551  -1  145  226  0  0
O  32.1768  1.7772  1.7772  -1  145  218  0  0
O  30.3485  9.5651  0.0828  -1  146  227  0  0
O  28.6857  10.3953  -1.7772  -1  228  146  0  0
O  27.8945  9.6357  -6.0862  -1  229  147  0  0
O  29.6254  10.3174  -4.2312  -1  147  228  0  0
O  30.3485  8.6936  -6.169  -1  230  147  0  0
O  30.4312  8.623  2.5368  -1  227  148  0  0
O  30.514  6.169  3.4789  -1  148  226  0  0
O  25.1508  7.9413  7.9413  -1  149  222  0  0
O  26.0905  10.3953  7.8634  -1  149  231  0  0
O  20.7955  12.1725  3.5495  -1  609  150  0  0
O  21.7376  12.2553  6.0035  -1  150  232  0  0
Si  25.6377  -5.2001  -3.0407  -2  153  233  234  151
Si  27.3906  -4.7935  -6.9724  -2  235  237  152  236
Si  23.4588  -3.0407  -7.379  -2  238  159  239  154
Si  19.5515  0.8862  -9.1318  -2  241  240  157  155
Si  19.5515  5.2001  -9.1269  -2  243  242  244  156
Si  19.1449  -3.0456  -7.379  -2  245  246  158  173
Si  19.5515  -6.9724  3.0456  -2  247  160  163  248
Si  21.3043  -7.379  -0.8862  -2  250  251  249  161
Si  15.2132  -4.7935  0.8862  -2  252  165  253  162
Si  15.2181  -4.7935  5.2001  -2  255  164  254  256
Si  16.966  -5.2001  -3.0456  -2  174  258  257  166
Si  15.2132  -1.2927  -6.9724  -2  259  260  172  167
Si  13.0587  3.0407  -4.7935  -2  262  170  168  261
Si  15.2181  7.379  -6.9724  -2  264  265  263  171
Si  31.3174  -3.0456  4.7935  -2  175  267  266  178
Si  31.724  0.8862  3.0407  -2  191  176  268  269
Si  29.1385  -0.8862  9.1318  -2  177  180  270  271
Si  29.1385  -5.2001  9.1269  -2  179  274  272  273
Si  29.5451  3.0456  7.379  -2  276  181  186  275
Si  25.6377  6.9724  9.1318  -2  199  185  182  277
Si  21.3043  4.7935  11.2863  -2  184  183  278  279
Si  33.4768  4.7935  -0.8862  -2  187  281  189  280
Si  33.4719  4.7935  -5.2001  -2  284  282  188  283
Si  31.724  5.2001  3.0456  -2  190  285  198  286
Si  31.3174  9.1318  1.2927  -2  192  287  288  197
Si  29.1385  11.2863  -3.0407  -2  195  289  290  193
Si  27.3857  10.8798  -6.9724  -2  291  293  194  292
Si  31.3174  9.1269  -7.379  -2  294  296  295  196
Si  25.6377  11.2863  9.1269  -2  200  299  297  298
Si  21.3043  13.4652  6.9724  -2  202  300  302  301
O  26.8818  -6.0862  -3.5495  -1  303  203  0  0
O  24.4278  -6.169  -2.6073  -1  304  203  0  0
O  26.2001  -5.2804  -7.9413  -1  305  204  0  0
O  27.8239  -6.0035  -6.0035  -1  204  303  0  0
O  28.6541  -4.3407  -7.8634  -1  306  204  0  0
O  24.345  -3.5495  -8.623  -1  305  205  0  0
O  22.4899  -4.2312  -6.8921  -1  205  307  0  0
O  18.3415  -0.0828  -9.5651  -1  206  308  0  0
O  20.0043  1.7772  -10.3953  -1  309  206  0  0
O  20.7955  6.0862  -9.6357  -1  310  207  0  0
O  19.0646  4.2312  -10.3174  -1  309  207  0  0
O  18.3415  6.169  -8.6936  -1  311  207  0  0
O  18.2587  -2.5368  -8.623  -1  308  208  0  0
O  20.0359  -4.3091  -7.8318  -1  307  208  0  0
O  19.0646  -7.9413  1.8551  -1  312  209  0  0
O  20.0043  -7.8634  4.3091  -1  209  313  0  0
O  20.7955  -8.623  0.0  -1  210  312  0  0
O  20.1138  -6.8921  -1.8551  -1  314  210  0  0
O  22.5678  -7.8318  -1.7772  -1  304  210  0  0
O  14.7798  -6.0035  -0.0828  -1  315  211  0  0
O  13.9497  -4.3407  1.7772  -1  211  316  0  0
O  14.7093  -3.5495  6.0862  -1  212  610  0  0
O  14.0276  -5.2804  4.2312  -1  316  212  0  0
O  15.6514  -6.0035  6.169  -1  212  317  0  0
O  15.722  -6.0862  -2.5368  -1  213  315  0  0
O  18.176  -6.169  -3.4789  -1  213  314  0  0
O  16.4037  -0.8058  -7.9413  -1  308  214  0  0
O  13.9497  -1.7455  -7.8634  -1  318  214  0  0
O  12.1725  3.5495  -3.5495  -1  215  611  0  0
O  12.0897  2.6073  -6.0035  -1  319  215  0  0
O  14.7093  8.623  -6.0862  -1  216  612  0  0
O  14.0276  6.8921  -7.9413  -1  320  216  0  0
O  16.4816  7.8318  -7.8634  -1  311  216  0  0
O  32.2863  -1.8551  5.2804  -1  321  217  0  0
O  32.2084  -4.3091  4.3407  -1  322  217  0  0
O  32.968  0.0  3.5495  -1  218  321  0  0
O  31.2371  1.8551  4.2312  -1  218  323  0  0
O  30.3485  0.0828  9.5651  -1  219  324  0  0
O  28.6857  -1.7772  10.3953  -1  219  325  0  0
O  27.8945  -6.0862  9.6357  -1  220  326  0  0
O  29.6254  -4.2312  10.3174  -1  220  325  0  0
O  30.3485  -6.169  8.6936  -1  220  327  0  0
O  30.4312  2.5368  8.623  -1  221  324  0  0
O  30.514  3.4789  6.169  -1  323  221  0  0
O  26.0905  7.8634  10.3953  -1  222  328  0  0
O  20.7955  3.5495  12.1725  -1  223  613  0  0
O  21.7376  6.0035  12.2553  -1  223  329  0  0
O  33.9102  6.0035  0.0828  -1  224  330  0  0
O  34.7403  4.3407  -1.7772  -1  331  224  0  0
O  33.9808  3.5495  -6.0862  -1  332  225  0  0
O  34.6624  5.2804  -4.2312  -1  225  331  0  0
O  33.0386  6.0035  -6.169  -1  333  225  0  0
O  32.968  6.0862  2.5368  -1  330  226  0  0
O  32.1768  4.3091  4.3091  -1  226  323  0  0
O  32.2863  7.9413  0.8058  -1  227  330  0  0
O  32.2084  10.3953  1.7455  -1  227  334  0  0
O  27.8945  12.1725  -3.5495  -1  335  228  0  0
O  30.3485  12.2553  -2.6073  -1  228  336  0  0
O  28.5762  11.3667  -7.9413  -1  337  229  0  0
O  26.9523  12.0897  -6.0035  -1  229  335  0  0
O  26.1222  10.427  -7.8634  -1  338  229  0  0
O  30.4312  9.6357  -8.623  -1  337  230  0  0
O  32.2863  10.3174  -6.8921  -1  339  230  0  0
O  32.2084  7.8634  -7.8318  -1  333  230  0  0
O  26.8818  12.1725  9.6357  -1  231  340  0  0
O  25.1508  10.3174  10.3174  -1  231  328  0  0
O  24.4278  12.2553  8.6936  -1  341  231  0  0
O  20.7955  14.7093  6.0862  -1  614  232  0  0
O  20.1138  12.9783  7.9413  -1  232  615  0  0
O  22.5678  13.918  7.8634  -1  232  341  0  0
Si  27.3906  -6.9724  -4.7935  -2  236  342  343  233
Si  23.4588  -7.379  -3.0407  -2  345  344  234  251
Si  25.2312  -4.7935  -9.1318  -2  347  346  238  235
Si  29.5451  -4.7935  -9.1269  -2  349  348  350  237
Si  21.2994  -5.2001  -7.379  -2  351  246  239  352
Si  17.3726  -1.2927  -9.1318  -2  353  240  245  259
Si  19.5515  3.0407  -11.2863  -2  355  354  241  243
Si  21.3043  6.9724  -10.8798  -2  357  356  358  242
Si  17.3726  7.379  -9.1269  -2  360  359  244  265
Si  19.5515  -9.1318  0.8862  -2  361  249  362  247
Si  19.5515  -9.1269  5.2001  -2  364  248  363  365
Si  19.1449  -7.379  -3.0456  -2  367  258  366  250
Si  15.2132  -6.9724  -1.2927  -2  257  369  368  252
Si  13.0587  -4.7935  3.0407  -2  253  371  370  255
Si  15.2181  -6.9724  7.379  -2  256  373  374  372
Si  13.0587  -1.2927  -9.1269  -2  376  375  377  260
Si  10.8798  3.0407  -6.9724  -2  379  380  378  262
Si  13.0587  7.379  -9.1318  -2  383  382  381  264
Si  33.4768  -0.8862  4.7935  -2  268  385  266  384
Si  33.4719  -5.2001  4.7935  -2  386  267  387  388
Si  31.724  3.0456  5.2001  -2  269  286  389  276
Si  31.3174  1.2927  9.1318  -2  390  275  270  391
Si  29.1385  -3.0407  11.2863  -2  273  271  392  393
Si  27.3857  -6.9724  10.8798  -2  272  396  394  395
Si  31.3174  -7.379  9.1269  -2  399  274  397  398
Si  25.6377  9.1269  11.2863  -2  298  277  400  401
Si  21.3043  6.9724  13.4652  -2  279  403  404  402
Si  33.4768  6.9724  1.2927  -2  280  287  405  285
Si  35.6313  4.7935  -3.0407  -2  283  406  407  281
Si  35.2248  3.0407  -6.9724  -2  408  410  282  409
Si  33.4719  6.9724  -7.379  -2  411  296  412  284
Si  33.4719  11.2863  1.2927  -2  415  414  288  413
Si  27.3857  13.0587  -4.7935  -2  292  416  417  289
Si  31.3174  13.4652  -3.0407  -2  419  418  290  420
Si  29.5451  10.8798  -9.1318  -2  422  421  294  291
Si  25.2312  10.8798  -9.1269  -2  424  423  425  293
Si  33.4768  11.2863  -7.379  -2  426  428  295  427
Si  27.3906  13.0587  10.8798  -2  297  431  429  430
Si  23.4588  13.4652  9.1269  -2  302  299  432  433
O  26.2001  -7.9413  -5.2804  -1  434  303  0  0
O  28.6541  -7.8634  -4.3407  -1  435  303  0  0
O  24.345  -8.623  -3.5495  -1  434  304  0  0
O  22.4899  -6.8921  -4.2312  -1  436  304  0  0
O  24.2622  -6.0035  -9.5651  -1  305  437  0  0
O  26.1222  -4.3407  -10.3953  -1  438  305  0  0
O  30.4312  -3.5495  -9.6357  -1  439  306  0  0
O  28.5762  -5.2804  -10.3174  -1  438  306  0  0
O  30.514  -6.0035  -8.6936  -1  440  306  0  0
O  21.8083  -6.0862  -8.623  -1  437  307  0  0
O  20.8661  -6.169  -6.169  -1  307  436  0  0
O  16.4816  -1.7455  -10.3953  -1  441  308  0  0
O  20.7955  3.5495  -12.1725  -1  442  309  0  0
O  18.3415  2.6073  -12.2553  -1  443  309  0  0
O  20.1138  7.9413  -11.3667  -1  310  444  0  0
O  21.7376  6.0035  -12.0897  -1  442  310  0  0
O  22.5678  7.8634  -10.427  -1  310  445  0  0
O  18.2587  8.623  -9.6357  -1  444  311  0  0
O  16.4037  6.8921  -10.3174  -1  446  311  0  0
O  18.3415  -9.5651  -0.0828  -1  447  312  0  0
O  20.0043  -10.3953  1.7772  -1  312  448  0  0
O  20.7955  -9.6357  6.0862  -1  313  449  0  0
O  19.0646  -10.3174  4.2312  -1  448  313  0  0
O  18.3415  -8.6936  6.169  -1  313  450  0  0
O  18.2587  -8.623  -2.5368  -1  314  447  0  0
O  20.0359  -7.8318  -4.3091  -1  436  314  0  0
O  16.4037  -7.9413  -0.8058  -1  447  315  0  0
O  13.9497  -7.8634  -1.7455  -1  315  451  0  0
O  12.1725  -3.5495  3.5495  -1  316  616  0  0
O  12.0897  -6.0035  2.6073  -1  316  452  0  0
O  14.7093  -6.0862  8.623  -1  317  617  0  0
O  14.0276  -7.9413  6.8921  -1  317  453  0  0
O  16.4816  -7.8634  7.8318  -1  450  317  0  0
O  12.1725  -2.5368  -9.6357  -1  454  318  0  0
O  14.0276  -0.8058  -10.3174  -1  441  318  0  0
O  12.0897  -0.0828  -8.6936  -1  455  318  0  0
O  9.6357  3.5495  -6.0862  -1  319  618  0  0
O  11.3667  4.2312  -7.9413  -1  456  319  0  0
O  10.427  1.7772  -7.8634  -1  455  319  0  0
O  12.1725  8.623  -8.623  -1  320  619  0  0
O  12.0897  6.169  -9.5651  -1  320  456  0  0
O  13.9497  7.8318  -10.3953  -1  446  320  0  0
O  33.9102  0.0828  6.0035  -1  321  457  0  0
O  34.7403  -1.7772  4.3407  -1  458  321  0  0
O  33.9808  -6.0862  3.5495  -1  459  322  0  0
O  34.6624  -4.2312  5.2804  -1  458  322  0  0
O  33.0386  -6.169  6.0035  -1  322  460  0  0
O  32.968  2.5368  6.0862  -1  323  457  0  0
O  32.2863  0.8058  7.9413  -1  457  324  0  0
O  32.2084  1.7455  10.3953  -1  324  461  0  0
O  27.8945  -3.5495  12.1725  -1  325  462  0  0
O  30.3485  -2.6073  12.2553  -1  325  463  0  0
O  28.5762  -7.9413  11.3667  -1  326  464  0  0
O  26.9523  -6.0035  12.0897  -1  326  462  0  0
O  26.1222  -7.8634  10.427  -1  326  465  0  0
O  30.4312  -8.623  9.6357  -1  327  464  0  0
O  32.2863  -6.8921  10.3174  -1  327  466  0  0
O  32.2084  -7.8318  7.8634  -1  460  327  0  0
O  26.8818  9.6357  12.1725  -1  328  467  0  0
O  24.4278  8.6936  12.2553  -1  328  468  0  0
O  20.7955  6.0862  14.7093  -1  329  620  0  0
O  20.1138  7.9413  12.9783  -1  621  329  0  0
O  22.5678  7.8634  13.918  -1  468  329  0  0
O  34.7403  7.8634  1.7455  -1  469  330  0  0
O  36.5175  3.5495  -3.5495  -1  470  331  0  0
O  36.6003  6.0035  -2.6073  -1  471  331  0  0
O  35.7117  4.2312  -7.9413  -1  472  332  0  0
O  36.4347  2.6073  -6.0035  -1  332  470  0  0
O  34.772  1.7772  -7.8634  -1  473  332  0  0
O  33.9808  6.0862  -8.623  -1  472  333  0  0
O  34.6624  7.9413  -6.8921  -1  474  333  0  0
O  33.9808  12.1725  2.5368  -1  334  475  0  0
O  34.6624  10.3174  0.8058  -1  469  334  0  0
O  33.0386  12.2553  0.0828  -1  476  334  0  0
O  28.5762  14.0276  -5.2804  -1  335  477  0  0
O  26.1222  13.9497  -4.3407  -1  335  478  0  0
O  30.4312  14.7093  -3.5495  -1  477  336  0  0
O  32.2863  12.9783  -4.2312  -1  479  336  0  0
O  32.2084  13.918  -1.7772  -1  336  476  0  0
O  30.514  12.0897  -9.5651  -1  337  480  0  0
O  28.6541  10.427  -10.3953  -1  481  337  0  0
O  24.345  9.6357  -9.6357  -1  445  338  0  0
O  26.2001  11.3667  -10.3174  -1  481  338  0  0
O  24.2622  12.0897  -8.6936  -1  338  482  0  0
O  32.968  12.1725  -8.623  -1  480  339  0  0
O  33.9102  12.2553  -6.169  -1  339  479  0  0
O  34.7403  10.3953  -7.8318  -1  474  339  0  0
O  26.2001  14.0276  11.3667  -1  340  483  0  0
O  27.8239  12.0897  12.0897  -1  340  467  0  0
O  28.6541  13.9497  10.427  -1  340  484  0  0
O  24.345  14.7093  9.6357  -1  341  483  0  0
O  22.4899  12.9783  10.3174  -1  341  622  0  0
Si  25.2312  -9.1318  -4.7935  -2  485  342  486  344
Si  29.5451  -9.1269  -4.7935  -2  489  488  343  487
Si  21.2994  -7.379  -5.2001  -2  352  490  367  345
Si  23.0523  -6.9724  -9.1318  -2  492  346  351  491
Si  27.3857  -4.7935  -11.2863  -2  494  493  347  349
Si  31.3174  -3.0407  -10.8798  -2  496  495  497  348
Si  31.724  -6.9724  -9.1269  -2  499  498  350  500
Si  15.2181  -1.2927  -11.2863  -2  502  501  353  376
Si  21.3043  4.7935  -13.0587  -2  503  504  354  357
Si  17.3726  3.0407  -13.4652  -2  505  507  506  355
Si  19.1449  9.1318  -10.8798  -2  508  356  509  359
Si  23.4588  9.1269  -10.8798  -2  511  510  358  423
Si  15.2132  7.379  -11.2863  -2  513  512  383  360
Si  17.3726  -9.1318  -1.2927  -2  366  514  368  361
Si  19.5515  -11.2863  3.0407  -2  362  516  515  364
Si  21.3043  -10.8798  6.9724  -2  518  363  519  517
Si  17.3726  -9.1269  7.379  -2  365  521  374  520
Si  13.0587  -9.1269  -1.2927  -2  522  369  523  524
Si  10.8798  -6.9724  3.0407  -2  527  371  525  526
Si  13.0587  -9.1318  7.379  -2  529  373  530  528
Si  11.2863  -3.0456  -10.8798  -2  532  531  533  375
Si  10.8798  0.8862  -9.1269  -2  535  534  377  380
Si  10.8798  5.2001  -9.1318  -2  537  382  536  379
Si  33.4768  1.2927  6.9724  -2  384  389  538  390
Si  35.6313  -3.0407  4.7935  -2  539  385  387  540
Si  35.2248  -6.9724  3.0407  -2  543  542  386  541
Si  33.4719  -7.379  6.9724  -2  388  544  399  545
Si  33.4719  1.2927  11.2863  -2  547  391  546  548
Si  27.3857  -4.7935  13.0587  -2  395  392  550  549
Si  31.3174  -3.0407  13.4652  -2  393  552  553  551
Si  29.5451  -9.1318  10.8798  -2  397  555  394  554
Si  25.2312  -9.1269  10.8798  -2  556  396  557  558
Si  33.4768  -7.379  11.2863  -2  398  561  559  560
Si  27.3906  10.8798  13.0587  -2  430  400  563  562
Si  23.4588  9.1269  13.4652  -2  401  565  404  564
Si  35.6313  9.1269  1.2927  -2  567  414  405  566
Si  37.4037  3.0407  -4.7935  -2  409  568  569  406
Si  37.8102  6.9724  -3.0407  -2  571  570  407  572
Si  35.2248  5.2001  -9.1318  -2  574  573  411  408
Si  35.2248  0.8862  -9.1269  -2  576  575  577  410
Si  35.6313  9.1318  -7.379  -2  578  428  412  579
Si  35.2248  13.0587  3.0456  -2  580  413  581  582
Si  33.4719  13.4652  -0.8862  -2  584  420  583  415
Si  29.5451  15.2181  -4.7935  -2  585  416  586  418
Si  25.2312  15.2132  -4.7935  -2  589  588  417  587
Si  33.4768  13.4652  -5.2001  -2  427  590  591  419
Si  31.724  13.0587  -9.1318  -2  593  421  426  592
Si  27.3906  10.8798  -11.2863  -2  595  594  422  424
Si  23.0523  13.0587  -9.1269  -2  597  596  425  598
Si  25.2312  15.2181  10.8798  -2  432  600  429  599
Si  29.5451  15.2132  10.8798  -2  601  431  602  603
H  24.2622  -9.5651  -6.0035  -3  434  0  0  0
H  26.1222  -10.3953  -4.3407  -3  434  0  0  0
H  30.4312  -9.6357  -3.5495  -3  435  0  0  0
H  28.5762  -10.3174  -5.2804  -3  435  0  0  0
H  30.514  -8.6936  -6.0035  -3  435  0  0  0
H  21.8083  -8.623  -6.0862  -3  436  0  0  0
H  23.5392  -7.9413  -7.9413  -3  437  0  0  0
H  22.5995  -7.8634  -10.3953  -3  437  0  0  0
H  27.8945  -3.5495  -12.1725  -3  438  0  0  0
H  26.9523  -6.0035  -12.2553  -3  438  0  0  0
H  32.2863  -4.2312  -11.3667  -3  439  0  0  0
H  30.3485  -2.6073  -12.0897  -3  439  0  0  0
H  32.2084  -1.7772  -10.427  -3  439  0  0  0
H  32.968  -6.0862  -9.6357  -3  440  0  0  0
H  31.2371  -7.9413  -10.3174  -3  440  0  0  0
H  32.1768  -7.8634  -7.8634  -3  440  0  0  0
H  14.7093  -2.5368  -12.1725  -3  441  0  0  0
H  15.6514  -0.0828  -12.2553  -3  441  0  0  0
H  20.1138  5.2804  -14.0276  -3  442  0  0  0
H  22.5678  4.3407  -13.9497  -3  442  0  0  0
H  18.2587  3.5495  -14.7093  -3  443  0  0  0
H  16.4037  4.2312  -12.9783  -3  443  0  0  0
H  16.4816  1.7772  -13.918  -3  443  0  0  0
H  18.176  9.5651  -12.0897  -3  444  0  0  0
H  20.0359  10.3953  -10.427  -3  444  0  0  0
H  22.4899  10.3174  -11.3667  -3  445  0  0  0
H  24.4278  8.6936  -12.0897  -3  445  0  0  0
H  15.722  8.623  -12.1725  -3  446  0  0  0
H  14.7798  6.169  -12.2553  -3  446  0  0  0
H  16.4816  -10.3953  -1.7455  -3  447  0  0  0
H  20.7955  -12.1725  3.5495  -3  448  0  0  0
H  18.3415  -12.2553  2.6073  -3  448  0  0  0
H  20.1138  -11.3667  7.9413  -3  449  0  0  0
H  21.7376  -12.0897  6.0035  -3  449  0  0  0
H  22.5678  -10.427  7.8634  -3  449  0  0  0
H  18.2587  -9.6357  8.623  -3  450  0  0  0
H  16.4037  -10.3174  6.8921  -3  450  0  0  0
H  12.1725  -9.6357  -2.5368  -3  451  0  0  0
H  14.0276  -10.3174  -0.8058  -3  451  0  0  0
H  12.0897  -8.6936  -0.0828  -3  451  0  0  0
H  9.6357  -6.0862  3.5495  -3  452  0  0  0
H  11.3667  -7.9413  4.2312  -3  452  0  0  0
H  10.427  -7.8634  1.7772  -3  452  0  0  0
H  12.1725  -8.623  8.623  -3  453  0  0  0
H  12.0897  -9.5651  6.169  -3  453  0  0  0
H  13.9497  -10.3953  7.8318  -3  453  0  0  0
H  10.3174  -1.8551  -11.3667  -3  454  0  0  0
H  12.2553  -3.4789  -12.0897  -3  454  0  0  0
H  10.3953  -4.3091  -10.427  -3  454  0  0  0
H  9.6357  0.0  -9.6357  -3  455  0  0  0
H  11.3667  1.8551  -10.3174  -3  455  0  0  0
H  9.6357  6.0862  -8.623  -3  456  0  0  0
H  10.427  4.3091  -10.3953  -3  456  0  0  0
H  34.7403  1.7455  7.8634  -3  457  0  0  0
H  36.5175  -3.5495  3.5495  -3  458  0  0  0
H  36.6003  -2.6073  6.0035  -3  458  0  0  0
H  35.7117  -7.9413  4.2312  -3  459  0  0  0
H  36.4347  -6.0035  2.6073  -3  459  0  0  0
H  34.772  -7.8634  1.7772  -3  459  0  0  0
H  33.9808  -8.623  6.0862  -3  460  0  0  0
H  34.6624  -6.8921  7.9413  -3  460  0  0  0
H  33.9808  2.5368  12.1725  -3  461  0  0  0
H  34.6624  0.8058  10.3174  -3  461  0  0  0
H  33.0386  0.0828  12.2553  -3  461  0  0  0
H  28.5762  -5.2804  14.0276  -3  462  0  0  0
H  26.1222  -4.3407  13.9497  -3  462  0  0  0
H  30.4312  -3.5495  14.7093  -3  463  0  0  0
H  32.2863  -4.2312  12.9783  -3  463  0  0  0
H  32.2084  -1.7772  13.918  -3  463  0  0  0
H  30.514  -9.5651  12.0897  -3  464  0  0  0
H  28.6541  -10.3953  10.427  -3  464  0  0  0
H  24.345  -9.6357  9.6357  -3  465  0  0  0
H  26.2001  -10.3174  11.3667  -3  465  0  0  0
H  24.2622  -8.6936  12.0897  -3  465  0  0  0
H  32.968  -8.623  12.1725  -3  466  0  0  0
H  33.9102  -6.169  12.2553  -3  466  0  0  0
H  34.7403  -7.8318  10.3953  -3  466  0  0  0
H  26.2001  11.3667  14.0276  -3  467  0  0  0
H  28.6541  10.427  13.9497  -3  467  0  0  0
H  24.345  9.6357  14.7093  -3  468  0  0  0
H  22.4899  10.3174  12.9783  -3  468  0  0  0
H  36.5175  9.6357  2.5368  -3  469  0  0  0
H  36.6003  8.6936  0.0828  -3  469  0  0  0
H  38.3726  4.2312  -5.2804  -3  470  0  0  0
H  38.2947  1.7772  -4.3407  -3  470  0  0  0
H  39.0543  6.0862  -3.5495  -3  471  0  0  0
H  37.3233  7.9413  -4.2312  -3  471  0  0  0
H  38.263  7.8634  -1.7772  -3  471  0  0  0
H  36.4347  6.169  -9.5651  -3  472  0  0  0
H  34.772  4.3091  -10.3953  -3  472  0  0  0
H  33.9808  0.0  -9.6357  -3  473  0  0  0
H  35.7117  1.8551  -10.3174  -3  473  0  0  0
H  36.4347  -0.0828  -8.6936  -3  473  0  0  0
H  36.5175  8.623  -8.623  -3  474  0  0  0
H  36.6003  9.5651  -6.169  -3  474  0  0  0
H  35.7117  14.0276  1.8551  -3  475  0  0  0
H  36.4347  12.0897  3.4789  -3  475  0  0  0
H  34.772  13.9497  4.3091  -3  475  0  0  0
H  33.9808  14.7093  0.0  -3  476  0  0  0
H  34.6624  12.9783  -1.8551  -3  476  0  0  0
H  30.514  15.6514  -6.0035  -3  477  0  0  0
H  28.6541  16.4816  -4.3407  -3  477  0  0  0
H  24.345  15.722  -3.5495  -3  478  0  0  0
H  26.2001  16.4037  -5.2804  -3  478  0  0  0
H  24.2622  14.7798  -6.0035  -3  478  0  0  0
H  32.968  14.7093  -6.0862  -3  479  0  0  0
H  34.7403  13.918  -4.3091  -3  479  0  0  0
H  31.2371  14.0276  -7.9413  -3  480  0  0  0
H  32.1768  13.9497  -10.3953  -3  480  0  0  0
H  26.8818  9.6357  -12.1725  -3  481  0  0  0
H  27.8239  12.0897  -12.2553  -3  481  0  0  0
H  21.8083  12.1725  -9.6357  -3  482  0  0  0
H  23.5392  14.0276  -10.3174  -3  482  0  0  0
H  22.5995  13.9497  -7.8634  -3  482  0  0  0
H  24.2622  15.6514  12.0897  -3  483  0  0  0
H  26.1222  16.4816  10.427  -3  483  0  0  0
H  30.4312  15.722  9.6357  -3  484  0  0  0
H  28.5762  16.4037  11.3667  -3  484  0  0  0
H  30.514  14.7798  12.0897  -3  484  0  0  0
H  19.505  8.6163  4.6105  -5  72  0  0  0
H  19.505  4.6105  8.6163  -5  112  0  0  0
H  19.5362  9.6077  4.9901  -5  125  0  0  0
H  13.9675  6.6146  -3.2461  -5  169  0  0  0
H  19.5362  4.9901  9.6077  -5  184  0  0  0
H  20.0537  12.701  3.2461  -5  201  0  0  0
H  13.9675  -3.2461  6.6146  -5  254  0  0  0
H  11.644  4.2913  -3.2461  -5  261  0  0  0
H  13.9674  8.9264  -5.5578  -5  263  0  0  0
H  20.0537  3.2461  12.701  -5  278  0  0  0
H  20.0537  15.0127  5.5578  -5  300  0  0  0
H  19.5362  13.2686  8.651  -5  301  0  0  0
H  11.644  -3.2461  4.2913  -5  370  0  0  0
H  13.9674  -5.5578  8.9264  -5  372  0  0  0
H  9.3323  4.2913  -5.5578  -5  378  0  0  0
H  11.644  8.9264  -7.8812  -5  381  0  0  0
H  20.0537  5.5578  15.0127  -5  402  0  0  0
H  19.5362  8.651  13.2686  -5  403  0  0  0
H  21.7802  13.2686  10.895  -5  433  0  0  0
