632

C  19.58329779  6.445137592  1.487171938  -31  0  0  0  0
C  19.01825891  5.24715812  1.049086437  -31  0  0  0  0
C  19.49519832  4.654160036  -0.114116807  -31  0  0  0  0
C  20.53185779  5.249249141  -0.832978474  -31  0  0  0  0
C  20.62063974  7.036638778  0.766872792  -31  0  0  0  0
C  21.111905  6.450003429  -0.411702651  -31  0  0  0  0
H  18.22268699  4.77465679  1.616849989  -44  0  0  0  0
H  19.0868263  3.712346211  -0.463001312  -44  0  0  0  0
C  18.78268466  1.640946006  1.941593489  -122  0  0  0  0
H  21.04675636  7.972280072  1.121472888  -44  0  0  0  0
C  22.23007397  7.095950373  -1.211155635  -122  0  0  0  0
H  20.9028363  4.763209348  -1.731168966  -44  0  0  0  0
C  21.81636595  8.482508719  -1.720581984  -121  0  0  0  0
H  22.41130317  6.457224662  -2.084692601  -112  0  0  0  0
C  23.53697897  7.165518224  -0.412263466  -121  0  0  0  0
H  20.88775989  8.432513969  -2.297242657  -111  0  0  0  0
H  22.59836936  8.899775911  -2.362968325  -111  0  0  0  0
H  21.66074245  9.180574895  -0.89030117  -111  0  0  0  0
H  23.42006958  7.789638528  0.48272026  -111  0  0  0  0
H  24.33335635  7.61467359  -1.013845982  -111  0  0  0  0
H  23.87465597  6.16768174  -0.111479444  -111  0  0  0  0
C  18.78526849  1.142239285  3.175975587  -121  0  0  0  0
C  17.6888856  1.43992089  0.934604702  -121  0  0  0  0
H  19.63870601  2.228445792  1.609160216  -112  0  0  0  0
H  19.62079855  1.301792299  3.850993984  -111  0  0  0  0
H  17.95567896  0.547227675  3.551812998  -111  0  0  0  0
H  21.77369947  5.010872059  1.19229139  -111  0  0  0  0
H  16.85554443  0.8681291  1.353048788  -111  0  0  0  0
H  17.29581793  2.398265775  0.571674606  -111  0  0  0  0
H  18.07064374  0.896089379  0.062581236  -111  0  0  0  0
H  19.22819702  6.916922541  2.399198157  0  33  0  0  0
Al  23.08574627  2.990841509  0.855923499  -2  35  33  36  34
O  21.6835091  2.420653435  0.071299981  -1  41  32  31  0
O  23.6896898  1.963656478  2.083546707  -1  32  45  0  0
O  24.32872817  3.655612875  -0.103129195  -1  37  32  0  0
O  22.39158848  4.474077579  1.74188299  -1  32  49  0  0
Si  25.24715289  3.082295529  -1.290310505  -2  38  54  53  35
O  24.35362702  2.56676936  -2.574156045  -1  39  37  0  0
Si  23.45538268  1.292819355  -3.063993072  -2  63  62  38  40
O  22.47491299  0.746077518  -1.866793782  -1  39  41  0  0
Si  21.24771826  1.234072067  -0.894504131  -2  40  50  33  42
O  20.74958854  -0.079715063  -0.06879002  -1  41  43  0  0
Si  21.26168696  -0.902951704  1.248759479  -2  42  64  65  44
O  21.80855303  0.04832524  2.457781056  -1  43  45  0  0
Si  23.06081101  0.880880073  3.082408868  -2  34  44  52  46
O  22.48566719  1.654475043  4.426578332  -1  45  47  0  0
Si  23.01202138  2.968400146  5.226028059  -2  48  46  72  73
O  23.51406005  4.162757465  4.186822512  -1  49  47  0  0
Si  23.05097075  5.255143223  3.098026606  -2  36  56  55  48
O  20.01119877  1.807277553  -1.788408329  -1  51  41  0  0
Si  19.12678101  1.294966145  -3.057189292  -2  67  66  68  50
O  24.25590842  -0.078016459  3.480292596  -1  45  57  0  0
O  26.19380842  1.859883542  -0.804407404  -1  58  37  0  0
O  26.11590842  4.313883542  -1.744107404  -1  59  37  0  0
O  21.80200842  6.090983542  3.550892596  -1  49  60  0  0
O  24.25590842  6.173783542  2.608692596  -1  61  49  0  0
Si  25.22490842  -1.287916459  3.046992596  -23  70  69  52  71
Si  27.38430842  0.890983542  -1.291307404  -23  74  76  53  75
Si  27.37940842  5.204883542  -1.291307404  -23  77  54  78  79
Si  21.29310842  6.977183542  4.794892596  -23  55  82  80  81
Si  25.22490842  7.383783542  3.042092596  -23  85  56  83  84
O  24.42150842  0.087583542  -3.477507404  -1  86  39  0  0
O  22.56150842  1.750283542  -4.307707404  -1  87  39  0  0
O  22.48360842  -1.850316459  0.807192596  -1  88  43  0  0
O  20.02960842  -1.772416459  1.746892596  -1  89  43  0  0
O  18.25240842  2.541583542  -3.548107404  -1  90  51  0  0
O  20.10750842  0.810583542  -4.229807404  -1  87  51  0  0
O  18.16970842  0.087583542  -2.605907404  -1  51  91  0  0
O  24.33870842  -2.532016459  2.538192596  -1  88  57  0  0
O  26.19380842  -0.801016459  1.856492596  -1  92  57  0  0
O  26.11590842  -1.740716459  4.310492596  -1  57  93  0  0
O  21.80200842  3.554283542  6.087592596  -1  47  94  0  0
O  24.25590842  2.612083542  6.170392596  -1  47  95  0  0
O  26.87550842  0.004783542  -2.535407404  -1  86  58  0  0
O  27.81760842  -0.078016459  -0.081407404  -1  58  92  0  0
O  28.64780842  1.781983542  -1.744107404  -1  58  96  0  0
O  27.88820842  6.090983542  -2.535407404  -1  97  59  0  0
O  28.56990842  4.235983542  -0.804407404  -1  59  96  0  0
O  26.94600842  6.173783542  -0.081407404  -1  59  98  0  0
O  22.48360842  7.946083542  5.281792596  -1  99  60  0  0
O  20.85980842  6.008283542  6.004892596  -1  60  94  0  0
O  20.02960842  7.868183542  4.342092596  -1  614  60  0  0
O  24.33870842  8.627783542  3.550892596  -1  61  99  0  0
O  26.19380842  6.896883542  4.232592596  -1  61  100  0  0
O  26.11590842  7.836583542  1.778592596  -1  98  61  0  0
Si  25.63140842  -0.881416459  -3.044207404  -23  102  62  74  101
Si  21.29800842  1.297483542  -5.198707404  -22  104  103  63  67
Si  23.45250842  -3.040816459  1.294092596  -23  105  64  106  69
Si  19.13860842  -3.035916459  1.294092596  -23  109  108  65  107
Si  17.36630842  3.050383542  -4.792107404  -23  111  110  112  66
Si  16.95970842  -0.881416459  -3.039307404  -23  114  113  68  115
Si  27.38430842  -1.287916459  0.887592596  -2  75  116  117  70
Si  27.37940842  -1.287916459  5.201492596  -2  119  71  118  120
Si  21.29310842  4.798283542  6.973792596  -23  81  72  122  121
Si  25.22490842  3.045483542  7.380392596  -23  73  124  125  123
Si  29.53880842  3.045483542  -1.291307404  -2  126  76  78  127
Si  29.13220842  6.977183542  -3.044207404  -2  130  129  77  128
Si  27.37940842  7.383783542  0.887592596  -2  79  131  85  132
Si  23.45250842  9.136583542  4.794892596  -2  83  134  80  133
Si  27.38430842  7.383783542  5.201492596  -2  84  138  136  137
O  25.14450842  -1.850316459  -1.853707404  -1  86  139  0  0
O  26.08420842  -1.772416459  -4.307707404  -1  140  86  0  0
O  20.78920842  2.541583542  -6.084807404  -1  141  87  0  0
O  21.73130842  0.087583542  -6.167607404  -1  142  87  0  0
O  24.42150842  -3.474116459  0.084192596  -1  139  88  0  0
O  22.56150842  -4.304316459  1.746892596  -1  88  143  0  0
O  18.25240842  -3.544716459  2.538192596  -1  89  144  0  0
O  20.10750842  -4.226416459  0.807192596  -1  89  143  0  0
O  18.16970842  -2.602516459  0.084192596  -1  145  89  0  0
O  16.39740842  1.859883542  -5.279007404  -1  90  146  0  0
O  18.33520842  3.483683542  -6.002107404  -1  141  90  0  0
O  16.47530842  4.313883542  -4.339307404  -1  90  147  0  0
O  15.71570842  0.004783542  -3.548107404  -1  146  91  0  0
O  17.44660842  -1.850316459  -4.229807404  -1  148  91  0  0
O  16.50690842  -1.772416459  -1.775807404  -1  91  145  0  0
O  26.87550842  -2.532016459  0.001392596  -1  139  92  0  0
O  28.64780842  -1.740716459  1.778592596  -1  92  149  0  0
O  27.88820842  -2.532016459  6.087592596  -1  93  150  0  0
O  28.56990842  -0.801016459  4.232592596  -1  149  93  0  0
O  26.94600842  -0.078016459  6.170392596  -1  93  151  0  0
O  22.48360842  5.285183542  7.942692596  -1  94  152  0  0
O  20.02960842  4.345483542  7.864792596  -1  94  615  0  0
O  24.33870842  3.554283542  8.624392596  -1  95  152  0  0
O  26.19380842  4.235983542  6.893492596  -1  153  95  0  0
O  26.11590842  1.781983542  7.833192596  -1  95  151  0  0
O  30.42490842  3.554283542  -2.535407404  -1  154  96  0  0
O  30.50770842  2.612083542  -0.081407404  -1  96  155  0  0
O  29.61910842  7.946083542  -1.853707404  -1  97  156  0  0
O  30.34220842  6.008283542  -3.477507404  -1  154  97  0  0
O  28.67940842  7.868183542  -4.307707404  -1  157  97  0  0
O  27.88820842  8.627783542  0.001392596  -1  156  98  0  0
O  28.56990842  6.896883542  1.856492596  -1  98  158  0  0
O  24.42150842  9.569883542  6.004892596  -1  99  159  0  0
O  22.56150842  10.40008354  4.342092596  -1  160  99  0  0
O  20.10750842  10.32218354  5.281792596  -1  160  616  0  0
O  26.87550842  8.627783542  6.087592596  -1  100  159  0  0
O  27.81760842  6.173783542  6.170392596  -1  100  153  0  0
O  28.64780842  7.836583542  4.310492596  -1  158  100  0  0
Si  25.63140842  -3.040816459  -0.884807404  -2  101  161  116  105
Si  25.63140842  -3.035916459  -5.198707404  -2  164  162  102  163
Si  19.54520842  3.050383542  -6.971007404  -2  165  166  103  111
Si  21.29800842  -0.881416459  -7.377607404  -2  167  169  168  104
Si  21.29800842  -5.195316459  1.294092596  -2  171  108  106  170
Si  17.36630842  -4.788716459  3.046992596  -2  172  107  173  174
Si  16.95970842  -3.035916459  -0.884807404  -2  176  115  175  109
Si  15.20690842  0.890983542  -4.792107404  -2  177  110  178  113
Si  15.21180842  5.204883542  -4.792107404  -2  181  180  112  179
Si  16.95970842  -3.040816459  -5.198707404  -2  183  182  184  114
Si  29.53880842  -1.287916459  3.042092596  -2  117  186  185  119
Si  29.13220842  -3.040816459  6.973792596  -2  188  118  189  187
Si  27.37940842  0.890983542  7.380392596  -2  120  191  125  190
Si  23.45250842  4.798283542  9.133192596  -2  121  123  192  193
Si  27.38430842  5.204883542  7.380392596  -2  137  124  196  195
Si  31.31110842  4.798283542  -3.044207404  -2  198  129  126  197
Si  31.71770842  3.045483542  0.887592596  -2  127  199  201  200
Si  29.13220842  9.136583542  -0.884807404  -2  128  203  131  202
Si  29.13220842  9.131683542  -5.198707404  -2  206  204  130  205
Si  29.53880842  7.383783542  3.046992596  -2  132  207  208  138
Si  25.63140842  9.136583542  6.973792596  -2  133  136  210  209
Si  21.29800842  11.29108354  4.794892596  -2  211  134  135  212
O  26.08420842  -4.304316459  -1.775807404  -1  213  139  0  0
O  26.87550842  -3.544716459  -6.084807404  -1  214  140  0  0
O  25.14450842  -4.226416459  -4.229807404  -1  140  213  0  0
O  24.42150842  -2.602516459  -6.167607404  -1  215  140  0  0
O  19.05830842  1.859883542  -7.939907404  -1  216  141  0  0
O  19.99800842  4.313883542  -7.862007404  -1  217  141  0  0
O  20.78920842  0.004783542  -8.621607404  -1  216  142  0  0
O  20.10750842  -1.850316459  -6.890707404  -1  142  218  0  0
O  22.56150842  -1.772416459  -7.830407404  -1  215  142  0  0
O  20.78920842  -6.081416459  2.538192596  -1  143  219  0  0
O  21.73130842  -6.164216459  0.084192596  -1  220  143  0  0
O  16.39740842  -5.275616459  1.856492596  -1  221  144  0  0
O  18.33520842  -5.998716459  3.480292596  -1  144  219  0  0
O  16.47530842  -4.335916459  4.310492596  -1  144  222  0  0
O  15.71570842  -3.544716459  0.001392596  -1  145  221  0  0
O  17.44660842  -4.226416459  -1.853707404  -1  223  145  0  0
O  14.77350842  -0.078016459  -6.002107404  -1  224  146  0  0
O  13.94340842  1.781983542  -4.339307404  -1  146  225  0  0
O  14.70300842  6.090983542  -3.548107404  -1  147  617  0  0
O  14.02130842  4.235983542  -5.279007404  -1  225  147  0  0
O  15.64510842  6.173783542  -6.002107404  -1  226  147  0  0
O  15.71570842  -2.532016459  -6.084807404  -1  224  148  0  0
O  18.16970842  -3.474116459  -6.167607404  -1  218  148  0  0
O  16.50690842  -4.304316459  -4.307707404  -1  148  223  0  0
O  30.42490842  -2.532016459  3.550892596  -1  149  227  0  0
O  30.50770842  -0.078016459  2.608692596  -1  149  228  0  0
O  29.61910842  -1.850316459  7.942692596  -1  150  229  0  0
O  30.34220842  -3.474116459  6.004892596  -1  227  150  0  0
O  28.67940842  -4.304316459  7.864792596  -1  150  230  0  0
O  27.88820842  0.004783542  8.624392596  -1  151  229  0  0
O  28.56990842  1.859883542  6.893492596  -1  231  151  0  0
O  24.42150842  6.008283542  9.566492596  -1  152  232  0  0
O  22.56150842  4.345483542  10.3966926  -1  152  233  0  0
O  20.10750842  5.285183542  10.3187926  -1  618  233  0  0
O  26.87550842  6.090983542  8.624392596  -1  153  232  0  0
O  28.64780842  4.313883542  7.833192596  -1  153  231  0  0
O  32.28000842  5.285183542  -1.853707404  -1  154  234  0  0
O  32.20210842  4.345483542  -4.307707404  -1  235  154  0  0
O  32.96170842  3.554283542  0.001392596  -1  234  155  0  0
O  31.23080842  4.235983542  1.856492596  -1  155  236  0  0
O  32.17050842  1.781983542  1.778592596  -1  155  228  0  0
O  30.34220842  9.569883542  0.084192596  -1  156  237  0  0
O  28.67940842  10.40008354  -1.775807404  -1  238  156  0  0
O  27.88820842  9.640483542  -6.084807404  -1  239  157  0  0
O  29.61910842  10.32218354  -4.229807404  -1  157  238  0  0
O  30.34220842  8.698383542  -6.167607404  -1  240  157  0  0
O  30.42490842  8.627783542  2.538192596  -1  237  158  0  0
O  30.50770842  6.173783542  3.480292596  -1  158  236  0  0
O  25.14450842  7.946083542  7.942692596  -1  159  232  0  0
O  26.08420842  10.40008354  7.864792596  -1  159  241  0  0
O  20.78920842  12.17728354  3.550892596  -1  619  160  0  0
O  21.73130842  12.26008354  6.004892596  -1  160  242  0  0
Si  25.63140842  -5.195316459  -3.039307404  -2  163  243  244  161
Si  27.38430842  -4.788716459  -6.971007404  -2  245  247  162  246
Si  23.45250842  -3.035916459  -7.377607404  -2  248  169  249  164
Si  19.54520842  0.890983542  -9.130407404  -2  251  250  167  165
Si  19.54520842  5.204883542  -9.125507404  -2  253  252  254  166
Si  19.13860842  -3.040816459  -7.377607404  -2  255  256  168  183
Si  19.54520842  -6.967616459  3.046992596  -2  257  170  173  258
Si  21.29800842  -7.374216459  -0.884807404  -2  260  261  259  171
Si  15.20690842  -4.788716459  0.887592596  -2  262  175  263  172
Si  15.21180842  -4.788716459  5.201492596  -2  265  174  264  266
Si  16.95970842  -5.195316459  -3.044207404  -2  184  268  267  176
Si  15.20690842  -1.287916459  -6.971007404  -2  269  270  182  177
Si  13.05240842  3.045483542  -4.792107404  -2  272  180  178  271
Si  15.21180842  7.383783542  -6.971007404  -2  274  275  273  181
Si  31.31110842  -3.040816459  4.794892596  -2  185  277  276  188
Si  31.71770842  0.890983542  3.042092596  -2  201  186  278  279
Si  29.13220842  -0.881416459  9.133192596  -2  187  190  280  281
Si  29.13220842  -5.195316459  9.128292596  -2  189  284  282  283
Si  29.53880842  3.050383542  7.380392596  -2  286  191  196  285
Si  25.63140842  6.977183542  9.133192596  -2  209  195  192  287
Si  21.29800842  4.798283542  11.2876926  -2  194  193  288  289
Si  33.47050842  4.798283542  -0.884807404  -2  197  291  199  290
Si  33.46560842  4.798283542  -5.198707404  -2  294  292  198  293
Si  31.71770842  5.204883542  3.046992596  -2  200  295  208  296
Si  31.31110842  9.136583542  1.294092596  -2  202  297  298  207
Si  29.13220842  11.29108354  -3.039307404  -2  205  299  300  203
Si  27.37940842  10.88458354  -6.971007404  -2  301  303  204  302
Si  31.31110842  9.131683542  -7.377607404  -2  304  306  305  206
Si  25.63140842  11.29108354  9.128292596  -2  210  309  307  308
Si  21.29800842  13.46998354  6.973792596  -2  212  310  312  311
O  26.87550842  -6.081416459  -3.548107404  -1  313  213  0  0
O  24.42150842  -6.164216459  -2.605907404  -1  314  213  0  0
O  26.19380842  -5.275616459  -7.939907404  -1  315  214  0  0
O  27.81760842  -5.998716459  -6.002107404  -1  214  313  0  0
O  28.64780842  -4.335916459  -7.862007404  -1  316  214  0  0
O  24.33870842  -3.544716459  -8.621607404  -1  315  215  0  0
O  22.48360842  -4.226416459  -6.890707404  -1  215  317  0  0
O  18.33520842  -0.078016459  -9.563707404  -1  216  318  0  0
O  19.99800842  1.781983542  -10.3939074  -1  319  216  0  0
O  20.78920842  6.090983542  -9.634307404  -1  320  217  0  0
O  19.05830842  4.235983542  -10.3160074  -1  319  217  0  0
O  18.33520842  6.173783542  -8.692207404  -1  321  217  0  0
O  18.25240842  -2.532016459  -8.621607404  -1  318  218  0  0
O  20.02960842  -4.304316459  -7.830407404  -1  317  218  0  0
O  19.05830842  -7.936516459  1.856492596  -1  322  219  0  0
O  19.99800842  -7.858616459  4.310492596  -1  219  323  0  0
O  20.78920842  -8.618216459  0.001392596  -1  220  322  0  0
O  20.10750842  -6.887316459  -1.853707404  -1  324  220  0  0
O  22.56150842  -7.827016459  -1.775807404  -1  314  220  0  0
O  14.77350842  -5.998716459  -0.081407404  -1  325  221  0  0
O  13.94340842  -4.335916459  1.778592596  -1  221  326  0  0
O  14.70300842  -3.544716459  6.087592596  -1  222  620  0  0
O  14.02130842  -5.275616459  4.232592596  -1  326  222  0  0
O  15.64510842  -5.998716459  6.170392596  -1  222  327  0  0
O  15.71570842  -6.081416459  -2.535407404  -1  223  325  0  0
O  18.16970842  -6.164216459  -3.477507404  -1  223  324  0  0
O  16.39740842  -0.801016459  -7.939907404  -1  318  224  0  0
O  13.94340842  -1.740716459  -7.862007404  -1  328  224  0  0
O  12.16620842  3.554283542  -3.548107404  -1  225  621  0  0
O  12.08340842  2.612083542  -6.002107404  -1  329  225  0  0
O  14.70300842  8.627783542  -6.084807404  -1  226  622  0  0
O  14.02130842  6.896883542  -7.939907404  -1  330  226  0  0
O  16.47530842  7.836583542  -7.862007404  -1  321  226  0  0
O  32.28000842  -1.850316459  5.281792596  -1  331  227  0  0
O  32.20210842  -4.304316459  4.342092596  -1  332  227  0  0
O  32.96170842  0.004783542  3.550892596  -1  228  331  0  0
O  31.23080842  1.859883542  4.232592596  -1  228  333  0  0
O  30.34220842  0.087583542  9.566492596  -1  229  334  0  0
O  28.67940842  -1.772416459  10.3966926  -1  229  335  0  0
O  27.88820842  -6.081416459  9.637092596  -1  230  336  0  0
O  29.61910842  -4.226416459  10.3187926  -1  230  335  0  0
O  30.34220842  -6.164216459  8.694992596  -1  230  337  0  0
O  30.42490842  2.541583542  8.624392596  -1  231  334  0  0
O  30.50770842  3.483683542  6.170392596  -1  333  231  0  0
O  26.08420842  7.868183542  10.3966926  -1  232  338  0  0
O  20.78920842  3.554283542  12.1738926  -1  233  623  0  0
O  21.73130842  6.008283542  12.2566926  -1  233  339  0  0
O  33.90390842  6.008283542  0.084192596  -1  234  340  0  0
O  34.73400842  4.345483542  -1.775807404  -1  341  234  0  0
O  33.97450842  3.554283542  -6.084807404  -1  342  235  0  0
O  34.65610842  5.285183542  -4.229807404  -1  235  341  0  0
O  33.03230842  6.008283542  -6.167607404  -1  343  235  0  0
O  32.96170842  6.090983542  2.538192596  -1  340  236  0  0
O  32.17050842  4.313883542  4.310492596  -1  236  333  0  0
O  32.28000842  7.946083542  0.807192596  -1  237  340  0  0
O  32.20210842  10.40008354  1.746892596  -1  237  344  0  0
O  27.88820842  12.17728354  -3.548107404  -1  345  238  0  0
O  30.34220842  12.26008354  -2.605907404  -1  238  346  0  0
O  28.56990842  11.37148354  -7.939907404  -1  347  239  0  0
O  26.94600842  12.09448354  -6.002107404  -1  239  345  0  0
O  26.11590842  10.43178354  -7.862007404  -1  348  239  0  0
O  30.42490842  9.640483542  -8.621607404  -1  347  240  0  0
O  32.28000842  10.32218354  -6.890707404  -1  349  240  0  0
O  32.20210842  7.868183542  -7.830407404  -1  343  240  0  0
O  26.87550842  12.17728354  9.637092596  -1  241  350  0  0
O  25.14450842  10.32218354  10.3187926  -1  241  338  0  0
O  24.42150842  12.26008354  8.694992596  -1  351  241  0  0
O  20.78920842  14.71408354  6.087592596  -1  624  242  0  0
O  20.10750842  12.98308354  7.942692596  -1  242  625  0  0
O  22.56150842  13.92278354  7.864792596  -1  242  351  0  0
Si  27.38430842  -6.967616459  -4.792107404  -2  246  352  353  243
Si  23.45250842  -7.374216459  -3.039307404  -2  355  354  244  261
Si  25.22490842  -4.788716459  -9.130407404  -2  357  356  248  245
Si  29.53880842  -4.788716459  -9.125507404  -2  359  358  360  247
Si  21.29310842  -5.195316459  -7.377607404  -2  361  256  249  362
Si  17.36630842  -1.287916459  -9.130407404  -2  363  250  255  269
Si  19.54520842  3.045483542  -11.2849074  -2  365  364  251  253
Si  21.29800842  6.977183542  -10.8784074  -2  367  366  368  252
Si  17.36630842  7.383783542  -9.125507404  -2  370  369  254  275
Si  19.54520842  -9.127016459  0.887592596  -2  371  259  372  257
Si  19.54520842  -9.122116459  5.201492596  -2  374  258  373  375
Si  19.13860842  -7.374216459  -3.044207404  -2  377  268  376  260
Si  15.20690842  -6.967616459  -1.291307404  -2  267  379  378  262
Si  13.05240842  -4.788716459  3.042092596  -2  263  381  380  265
Si  15.21180842  -6.967616459  7.380392596  -2  266  383  384  382
Si  13.05240842  -1.287916459  -9.125507404  -2  386  385  387  270
Si  10.87350842  3.045483542  -6.971007404  -2  389  390  388  272
Si  13.05240842  7.383783542  -9.130407404  -2  393  392  391  274
Si  33.47050842  -0.881416459  4.794892596  -2  278  395  276  394
Si  33.46560842  -5.195316459  4.794892596  -2  396  277  397  398
Si  31.71770842  3.050383542  5.201492596  -2  279  296  399  286
Si  31.31110842  1.297483542  9.133192596  -2  400  285  280  401
Si  29.13220842  -3.035916459  11.2876926  -2  283  281  402  403
Si  27.37940842  -6.967616459  10.8811926  -2  282  406  404  405
Si  31.31110842  -7.374216459  9.128292596  -2  409  284  407  408
Si  25.63140842  9.131683542  11.2876926  -2  308  287  410  411
Si  21.29800842  6.977183542  13.4665926  -2  289  413  414  412
Si  33.47050842  6.977183542  1.294092596  -2  290  297  415  295
Si  35.62500842  4.798283542  -3.039307404  -2  293  416  417  291
Si  35.21850842  3.045483542  -6.971007404  -2  418  420  292  419
Si  33.46560842  6.977183542  -7.377607404  -2  421  306  422  294
Si  33.46560842  11.29108354  1.294092596  -2  425  424  298  423
Si  27.37940842  13.06348354  -4.792107404  -2  302  426  427  299
Si  31.31110842  13.46998354  -3.039307404  -2  429  428  300  430
Si  29.53880842  10.88458354  -9.130407404  -2  432  431  304  301
Si  25.22490842  10.88458354  -9.125507404  -2  434  433  435  303
Si  33.47050842  11.29108354  -7.377607404  -2  436  438  305  437
Si  27.38430842  13.06348354  10.8811926  -2  307  441  439  440
Si  23.45250842  13.46998354  9.128292596  -2  312  309  442  443
O  26.19380842  -7.936516459  -5.279007404  -1  444  313  0  0
O  28.64780842  -7.858616459  -4.339307404  -1  445  313  0  0
O  24.33870842  -8.618216459  -3.548107404  -1  444  314  0  0
O  22.48360842  -6.887316459  -4.229807404  -1  446  314  0  0
O  24.25590842  -5.998716459  -9.563707404  -1  315  447  0  0
O  26.11590842  -4.335916459  -10.3939074  -1  448  315  0  0
O  30.42490842  -3.544716459  -9.634307404  -1  449  316  0  0
O  28.56990842  -5.275616459  -10.3160074  -1  448  316  0  0
O  30.50770842  -5.998716459  -8.692207404  -1  450  316  0  0
O  21.80200842  -6.081416459  -8.621607404  -1  447  317  0  0
O  20.85980842  -6.164216459  -6.167607404  -1  317  446  0  0
O  16.47530842  -1.740716459  -10.3939074  -1  451  318  0  0
O  20.78920842  3.554283542  -12.1711074  -1  452  319  0  0
O  18.33520842  2.612083542  -12.2539074  -1  453  319  0  0
O  20.10750842  7.946083542  -11.3653074  -1  320  454  0  0
O  21.73130842  6.008283542  -12.0883074  -1  452  320  0  0
O  22.56150842  7.868183542  -10.4256074  -1  320  455  0  0
O  18.25240842  8.627783542  -9.634307404  -1  454  321  0  0
O  16.39740842  6.896883542  -10.3160074  -1  456  321  0  0
O  18.33520842  -9.560316459  -0.081407404  -1  457  322  0  0
O  19.99800842  -10.39051646  1.778592596  -1  322  458  0  0
O  20.78920842  -9.630916459  6.087592596  -1  323  459  0  0
O  19.05830842  -10.31261646  4.232592596  -1  458  323  0  0
O  18.33520842  -8.688816459  6.170392596  -1  323  460  0  0
O  18.25240842  -8.618216459  -2.535407404  -1  324  457  0  0
O  20.02960842  -7.827016459  -4.307707404  -1  446  324  0  0
O  16.39740842  -7.936516459  -0.804407404  -1  457  325  0  0
O  13.94340842  -7.858616459  -1.744107404  -1  325  461  0  0
O  12.16620842  -3.544716459  3.550892596  -1  326  626  0  0
O  12.08340842  -5.998716459  2.608692596  -1  326  462  0  0
O  14.70300842  -6.081416459  8.624392596  -1  327  627  0  0
O  14.02130842  -7.936516459  6.893492596  -1  327  463  0  0
O  16.47530842  -7.858616459  7.833192596  -1  460  327  0  0
O  12.16620842  -2.532016459  -9.634307404  -1  464  328  0  0
O  14.02130842  -0.801016459  -10.3160074  -1  451  328  0  0
O  12.08340842  -0.078016459  -8.692207404  -1  465  328  0  0
O  9.629408414  3.554283542  -6.084807404  -1  329  628  0  0
O  11.36040842  4.235983542  -7.939907404  -1  466  329  0  0
O  10.42070842  1.781983542  -7.862007404  -1  465  329  0  0
O  12.16620842  8.627783542  -8.621607404  -1  330  629  0  0
O  12.08340842  6.173783542  -9.563707404  -1  330  466  0  0
O  13.94340842  7.836583542  -10.3939074  -1  456  330  0  0
O  33.90390842  0.087583542  6.004892596  -1  331  467  0  0
O  34.73400842  -1.772416459  4.342092596  -1  468  331  0  0
O  33.97450842  -6.081416459  3.550892596  -1  469  332  0  0
O  34.65610842  -4.226416459  5.281792596  -1  468  332  0  0
O  33.03230842  -6.164216459  6.004892596  -1  332  470  0  0
O  32.96170842  2.541583542  6.087592596  -1  333  467  0  0
O  32.28000842  0.810583542  7.942692596  -1  467  334  0  0
O  32.20210842  1.750283542  10.3966926  -1  334  471  0  0
O  27.88820842  -3.544716459  12.1738926  -1  335  472  0  0
O  30.34220842  -2.602516459  12.2566926  -1  335  473  0  0
O  28.56990842  -7.936516459  11.3680926  -1  336  474  0  0
O  26.94600842  -5.998716459  12.0910926  -1  336  472  0  0
O  26.11590842  -7.858616459  10.4283926  -1  336  475  0  0
O  30.42490842  -8.618216459  9.637092596  -1  337  474  0  0
O  32.28000842  -6.887316459  10.3187926  -1  337  476  0  0
O  32.20210842  -7.827016459  7.864792596  -1  470  337  0  0
O  26.87550842  9.640483542  12.1738926  -1  338  477  0  0
O  24.42150842  8.698383542  12.2566926  -1  338  478  0  0
O  20.78920842  6.090983542  14.7106926  -1  339  630  0  0
O  20.10750842  7.946083542  12.9796926  -1  631  339  0  0
O  22.56150842  7.868183542  13.9193926  -1  478  339  0  0
O  34.73400842  7.868183542  1.746892596  -1  479  340  0  0
O  36.51120842  3.554283542  -3.548107404  -1  480  341  0  0
O  36.59400842  6.008283542  -2.605907404  -1  481  341  0  0
O  35.70540842  4.235983542  -7.939907404  -1  482  342  0  0
O  36.42840842  2.612083542  -6.002107404  -1  342  480  0  0
O  34.76570842  1.781983542  -7.862007404  -1  483  342  0  0
O  33.97450842  6.090983542  -8.621607404  -1  482  343  0  0
O  34.65610842  7.946083542  -6.890707404  -1  484  343  0  0
O  33.97450842  12.17728354  2.538192596  -1  344  485  0  0
O  34.65610842  10.32218354  0.807192596  -1  479  344  0  0
O  33.03230842  12.26008354  0.084192596  -1  486  344  0  0
O  28.56990842  14.03238354  -5.279007404  -1  345  487  0  0
O  26.11590842  13.95448354  -4.339307404  -1  345  488  0  0
O  30.42490842  14.71408354  -3.548107404  -1  487  346  0  0
O  32.28000842  12.98308354  -4.229807404  -1  489  346  0  0
O  32.20210842  13.92278354  -1.775807404  -1  346  486  0  0
O  30.50770842  12.09448354  -9.563707404  -1  347  490  0  0
O  28.64780842  10.43178354  -10.3939074  -1  491  347  0  0
O  24.33870842  9.640483542  -9.634307404  -1  455  348  0  0
O  26.19380842  11.37148354  -10.3160074  -1  491  348  0  0
O  24.25590842  12.09448354  -8.692207404  -1  348  492  0  0
O  32.96170842  12.17728354  -8.621607404  -1  490  349  0  0
O  33.90390842  12.26008354  -6.167607404  -1  349  489  0  0
O  34.73400842  10.40008354  -7.830407404  -1  484  349  0  0
O  26.19380842  14.03238354  11.3680926  -1  350  493  0  0
O  27.81760842  12.09448354  12.0910926  -1  350  477  0  0
O  28.64780842  13.95448354  10.4283926  -1  350  494  0  0
O  24.33870842  14.71408354  9.637092596  -1  351  493  0  0
O  22.48360842  12.98308354  10.3187926  -1  351  632  0  0
Si  25.22490842  -9.127016459  -4.792107404  -2  495  352  496  354
Si  29.53880842  -9.122116459  -4.792107404  -2  499  498  353  497
Si  21.29310842  -7.374216459  -5.198707404  -2  362  500  377  355
Si  23.04600842  -6.967616459  -9.130407404  -2  502  356  361  501
Si  27.37940842  -4.788716459  -11.2849074  -2  504  503  357  359
Si  31.31110842  -3.035916459  -10.8784074  -2  506  505  507  358
Si  31.71770842  -6.967616459  -9.125507404  -2  509  508  360  510
Si  15.21180842  -1.287916459  -11.2849074  -2  512  511  363  386
Si  21.29800842  4.798283542  -13.0573074  -2  513  514  364  367
Si  17.36630842  3.045483542  -13.4638074  -2  515  517  516  365
Si  19.13860842  9.136583542  -10.8784074  -2  518  366  519  369
Si  23.45250842  9.131683542  -10.8784074  -2  521  520  368  433
Si  15.20690842  7.383783542  -11.2849074  -2  523  522  393  370
Si  17.36630842  -9.127016459  -1.291307404  -2  376  524  378  371
Si  19.54520842  -11.28151646  3.042092596  -2  372  526  525  374
Si  21.29800842  -10.87501646  6.973792596  -2  528  373  529  527
Si  17.36630842  -9.122116459  7.380392596  -2  375  531  384  530
Si  13.05240842  -9.122116459  -1.291307404  -2  532  379  533  534
Si  10.87350842  -6.967616459  3.042092596  -2  537  381  535  536
Si  13.05240842  -9.127016459  7.380392596  -2  539  383  540  538
Si  11.28000842  -3.040816459  -10.8784074  -2  542  541  543  385
Si  10.87350842  0.890983542  -9.125507404  -2  545  544  387  390
Si  10.87350842  5.204883542  -9.130407404  -2  547  392  546  389
Si  33.47050842  1.297483542  6.973792596  -2  394  399  548  400
Si  35.62500842  -3.035916459  4.794892596  -2  549  395  397  550
Si  35.21850842  -6.967616459  3.042092596  -2  553  552  396  551
Si  33.46560842  -7.374216459  6.973792596  -2  398  554  409  555
Si  33.46560842  1.297483542  11.2876926  -2  557  401  556  558
Si  27.37940842  -4.788716459  13.0600926  -2  405  402  560  559
Si  31.31110842  -3.035916459  13.4665926  -2  403  562  563  561
Si  29.53880842  -9.127016459  10.8811926  -2  407  565  404  564
Si  25.22490842  -9.122116459  10.8811926  -2  566  406  567  568
Si  33.47050842  -7.374216459  11.2876926  -2  408  571  569  570
Si  27.38430842  10.88458354  13.0600926  -2  440  410  573  572
Si  23.45250842  9.131683542  13.4665926  -2  411  575  414  574
Si  35.62500842  9.131683542  1.294092596  -2  577  424  415  576
Si  37.39740842  3.045483542  -4.792107404  -2  419  578  579  416
Si  37.80390842  6.977183542  -3.039307404  -2  581  580  417  582
Si  35.21850842  5.204883542  -9.130407404  -2  584  583  421  418
Si  35.21850842  0.890983542  -9.125507404  -2  586  585  587  420
Si  35.62500842  9.136583542  -7.377607404  -2  588  438  422  589
Si  35.21850842  13.06348354  3.046992596  -2  590  423  591  592
Si  33.46560842  13.46998354  -0.884807404  -2  594  430  593  425
Si  29.53880842  15.22288354  -4.792107404  -2  595  426  596  428
Si  25.22490842  15.21798354  -4.792107404  -2  599  598  427  597
Si  33.47050842  13.46998354  -5.198707404  -2  437  600  601  429
Si  31.71770842  13.06348354  -9.130407404  -2  603  431  436  602
Si  27.38430842  10.88458354  -11.2849074  -2  605  604  432  434
Si  23.04600842  13.06348354  -9.125507404  -2  607  606  435  608
Si  25.22490842  15.22288354  10.8811926  -2  442  610  439  609
Si  29.53880842  15.21798354  10.8811926  -2  611  441  612  613
H  24.25590842  -9.560316459  -6.002107404  -3  444  0  0  0
H  26.11590842  -10.39051646  -4.339307404  -3  444  0  0  0
H  30.42490842  -9.630916459  -3.548107404  -3  445  0  0  0
H  28.56990842  -10.31261646  -5.279007404  -3  445  0  0  0
H  30.50770842  -8.688816459  -6.002107404  -3  445  0  0  0
H  21.80200842  -8.618216459  -6.084807404  -3  446  0  0  0
H  23.53290842  -7.936516459  -7.939907404  -3  447  0  0  0
H  22.59320842  -7.858616459  -10.3939074  -3  447  0  0  0
H  27.88820842  -3.544716459  -12.1711074  -3  448  0  0  0
H  26.94600842  -5.998716459  -12.2539074  -3  448  0  0  0
H  32.28000842  -4.226416459  -11.3653074  -3  449  0  0  0
H  30.34220842  -2.602516459  -12.0883074  -3  449  0  0  0
H  32.20210842  -1.772416459  -10.4256074  -3  449  0  0  0
H  32.96170842  -6.081416459  -9.634307404  -3  450  0  0  0
H  31.23080842  -7.936516459  -10.3160074  -3  450  0  0  0
H  32.17050842  -7.858616459  -7.862007404  -3  450  0  0  0
H  14.70300842  -2.532016459  -12.1711074  -3  451  0  0  0
H  15.64510842  -0.078016459  -12.2539074  -3  451  0  0  0
H  20.10750842  5.285183542  -14.0262074  -3  452  0  0  0
H  22.56150842  4.345483542  -13.9483074  -3  452  0  0  0
H  18.25240842  3.554283542  -14.7079074  -3  453  0  0  0
H  16.39740842  4.235983542  -12.9769074  -3  453  0  0  0
H  16.47530842  1.781983542  -13.9166074  -3  453  0  0  0
H  18.16970842  9.569883542  -12.0883074  -3  454  0  0  0
H  20.02960842  10.40008354  -10.4256074  -3  454  0  0  0
H  22.48360842  10.32218354  -11.3653074  -3  455  0  0  0
H  24.42150842  8.698383542  -12.0883074  -3  455  0  0  0
H  15.71570842  8.627783542  -12.1711074  -3  456  0  0  0
H  14.77350842  6.173783542  -12.2539074  -3  456  0  0  0
H  16.47530842  -10.39051646  -1.744107404  -3  457  0  0  0
H  20.78920842  -12.16771646  3.550892596  -3  458  0  0  0
H  18.33520842  -12.25051646  2.608692596  -3  458  0  0  0
H  20.10750842  -11.36191646  7.942692596  -3  459  0  0  0
H  21.73130842  -12.08491646  6.004892596  -3  459  0  0  0
H  22.56150842  -10.42221646  7.864792596  -3  459  0  0  0
H  18.25240842  -9.630916459  8.624392596  -3  460  0  0  0
H  16.39740842  -10.31261646  6.893492596  -3  460  0  0  0
H  12.16620842  -9.630916459  -2.535407404  -3  461  0  0  0
H  14.02130842  -10.31261646  -0.804407404  -3  461  0  0  0
H  12.08340842  -8.688816459  -0.081407404  -3  461  0  0  0
H  9.629408414  -6.081416459  3.550892596  -3  462  0  0  0
H  11.36040842  -7.936516459  4.232592596  -3  462  0  0  0
H  10.42070842  -7.858616459  1.778592596  -3  462  0  0  0
H  12.16620842  -8.618216459  8.624392596  -3  463  0  0  0
H  12.08340842  -9.560316459  6.170392596  -3  463  0  0  0
H  13.94340842  -10.39051646  7.833192596  -3  463  0  0  0
H  10.31110842  -1.850316459  -11.3653074  -3  464  0  0  0
H  12.24900842  -3.474116459  -12.0883074  -3  464  0  0  0
H  10.38900842  -4.304316459  -10.4256074  -3  464  0  0  0
H  9.629408414  0.004783542  -9.634307404  -3  465  0  0  0
H  11.36040842  1.859883542  -10.3160074  -3  465  0  0  0
H  9.629408414  6.090983542  -8.621607404  -3  466  0  0  0
H  10.42070842  4.313883542  -10.3939074  -3  466  0  0  0
H  34.73400842  1.750283542  7.864792596  -3  467  0  0  0
H  36.51120842  -3.544716459  3.550892596  -3  468  0  0  0
H  36.59400842  -2.602516459  6.004892596  -3  468  0  0  0
H  35.70540842  -7.936516459  4.232592596  -3  469  0  0  0
H  36.42840842  -5.998716459  2.608692596  -3  469  0  0  0
H  34.76570842  -7.858616459  1.778592596  -3  469  0  0  0
H  33.97450842  -8.618216459  6.087592596  -3  470  0  0  0
H  34.65610842  -6.887316459  7.942692596  -3  470  0  0  0
H  33.97450842  2.541583542  12.1738926  -3  471  0  0  0
H  34.65610842  0.810583542  10.3187926  -3  471  0  0  0
H  33.03230842  0.087583542  12.2566926  -3  471  0  0  0
H  28.56990842  -5.275616459  14.0289926  -3  472  0  0  0
H  26.11590842  -4.335916459  13.9510926  -3  472  0  0  0
H  30.42490842  -3.544716459  14.7106926  -3  473  0  0  0
H  32.28000842  -4.226416459  12.9796926  -3  473  0  0  0
H  32.20210842  -1.772416459  13.9193926  -3  473  0  0  0
H  30.50770842  -9.560316459  12.0910926  -3  474  0  0  0
H  28.64780842  -10.39051646  10.4283926  -3  474  0  0  0
H  24.33870842  -9.630916459  9.637092596  -3  475  0  0  0
H  26.19380842  -10.31261646  11.3680926  -3  475  0  0  0
H  24.25590842  -8.688816459  12.0910926  -3  475  0  0  0
H  32.96170842  -8.618216459  12.1738926  -3  476  0  0  0
H  33.90390842  -6.164216459  12.2566926  -3  476  0  0  0
H  34.73400842  -7.827016459  10.3966926  -3  476  0  0  0
H  26.19380842  11.37148354  14.0289926  -3  477  0  0  0
H  28.64780842  10.43178354  13.9510926  -3  477  0  0  0
H  24.33870842  9.640483542  14.7106926  -3  478  0  0  0
H  22.48360842  10.32218354  12.9796926  -3  478  0  0  0
H  36.51120842  9.640483542  2.538192596  -3  479  0  0  0
H  36.59400842  8.698383542  0.084192596  -3  479  0  0  0
H  38.36630842  4.235983542  -5.279007404  -3  480  0  0  0
H  38.28840842  1.781983542  -4.339307404  -3  480  0  0  0
H  39.04800842  6.090983542  -3.548107404  -3  481  0  0  0
H  37.31700842  7.946083542  -4.229807404  -3  481  0  0  0
H  38.25670842  7.868183542  -1.775807404  -3  481  0  0  0
H  36.42840842  6.173783542  -9.563707404  -3  482  0  0  0
H  34.76570842  4.313883542  -10.3939074  -3  482  0  0  0
H  33.97450842  0.004783542  -9.634307404  -3  483  0  0  0
H  35.70540842  1.859883542  -10.3160074  -3  483  0  0  0
H  36.42840842  -0.078016459  -8.692207404  -3  483  0  0  0
H  36.51120842  8.627783542  -8.621607404  -3  484  0  0  0
H  36.59400842  9.569883542  -6.167607404  -3  484  0  0  0
H  35.70540842  14.03238354  1.856492596  -3  485  0  0  0
H  36.42840842  12.09448354  3.480292596  -3  485  0  0  0
H  34.76570842  13.95448354  4.310492596  -3  485  0  0  0
H  33.97450842  14.71408354  0.001392596  -3  486  0  0  0
H  34.65610842  12.98308354  -1.853707404  -3  486  0  0  0
H  30.50770842  15.65618354  -6.002107404  -3  487  0  0  0
H  28.64780842  16.48638354  -4.339307404  -3  487  0  0  0
H  24.33870842  15.72678354  -3.548107404  -3  488  0  0  0
H  26.19380842  16.40848354  -5.279007404  -3  488  0  0  0
H  24.25590842  14.78458354  -6.002107404  -3  488  0  0  0
H  32.96170842  14.71408354  -6.084807404  -3  489  0  0  0
H  34.73400842  13.92278354  -4.307707404  -3  489  0  0  0
H  31.23080842  14.03238354  -7.939907404  -3  490  0  0  0
H  32.17050842  13.95448354  -10.3939074  -3  490  0  0  0
H  26.87550842  9.640483542  -12.1711074  -3  491  0  0  0
H  27.81760842  12.09448354  -12.2539074  -3  491  0  0  0
H  21.80200842  12.17728354  -9.634307404  -3  492  0  0  0
H  23.53290842  14.03238354  -10.3160074  -3  492  0  0  0
H  22.59320842  13.95448354  -7.862007404  -3  492  0  0  0
H  24.25590842  15.65618354  12.0910926  -3  493  0  0  0
H  26.11590842  16.48638354  10.4283926  -3  493  0  0  0
H  30.42490842  15.72678354  9.637092596  -3  494  0  0  0
H  28.56990842  16.40848354  11.3680926  -3  494  0  0  0
H  30.50770842  14.78458354  12.0910926  -3  494  0  0  0
H  19.49870842  8.621083542  4.611892596  -5  82  0  0  0
H  19.49870842  4.615283542  8.617692596  -5  122  0  0  0
H  19.52990842  9.612483542  4.991492596  -5  135  0  0  0
H  13.96120842  6.619383542  -3.244707404  -5  179  0  0  0
H  19.52990842  4.994883542  9.609092596  -5  194  0  0  0
H  20.04740842  12.70578354  3.247492596  -5  211  0  0  0
H  13.96120842  -3.241316459  6.615992596  -5  264  0  0  0
H  11.63770842  4.296083542  -3.244707404  -5  271  0  0  0
H  13.96110842  8.931183542  -5.556407404  -5  273  0  0  0
H  20.04740842  3.250883542  12.7023926  -5  288  0  0  0
H  20.04740842  15.01748354  5.559192596  -5  310  0  0  0
H  19.52990842  13.27338354  8.652392596  -5  311  0  0  0
H  11.63770842  -3.241316459  4.292692596  -5  380  0  0  0
H  13.96110842  -5.553016459  8.927792596  -5  382  0  0  0
H  9.326008414  4.296083542  -5.556407404  -5  388  0  0  0
H  11.63770842  8.931183542  -7.879807404  -5  391  0  0  0
H  20.04740842  5.562583542  15.0140926  -5  412  0  0  0
H  19.52990842  8.655783542  13.2699926  -5  413  0  0  0
H  21.77390842  13.27338354  10.8963926  -5  443  0  0  0
