632

C  19.49997996  4.730266098  0.054780689  -31  0  0  0  0
C  18.96828207  4.583878296  -1.281731391  -31  0  0  0  0
C  19.47866724  5.299356527  -2.334106248  -31  0  0  0  0
C  20.48755049  6.243073542  -2.096165318  -31  0  0  0  0
C  20.44624656  5.809777751  0.239067859  -31  0  0  0  0
C  20.98502112  6.525346643  -0.817906356  -31  0  0  0  0
H  18.17137225  3.866087683  -1.438100205  -44  0  0  0  0
H  19.09389626  5.164273542  -3.338934585  -44  0  0  0  0
C  18.58335439  4.252650286  1.218224929  -122  0  0  0  0
H  20.8159638  5.972429279  1.240556247  -44  0  0  0  0
C  22.07831908  7.564202764  -0.638997469  -122  0  0  0  0
H  20.8928115  6.79232491  -2.94337167  -44  0  0  0  0
C  21.9823349  8.318662432  0.689692741  -121  0  0  0  0
H  21.94528741  8.299012296  -1.443770201  -112  0  0  0  0
C  23.45665388  6.907234199  -0.816753716  -121  0  0  0  0
H  20.98888975  8.754033517  0.839931194  -111  0  0  0  0
H  22.7157286  9.128891292  0.712804081  111  0  0  0  0
H  22.20290683  7.67001186  1.543512234  -111  0  0  0  0
H  23.61857857  6.11679789  -0.078058278  -111  0  0  0  0
H  24.24841043  7.652627686  -0.696515807  -111  0  0  0  0
H  23.55980268  6.454288154  -1.808820306  -111  0  0  0  0
C  19.09649939  4.661455739  2.597055785  -121  0  0  0  0
C  18.37144481  2.735572789  1.171131521  -121  0  0  0  0
H  17.61582577  4.74478675  1.056865521  -112  0  0  0  0
H  19.13642351  5.747822429  2.722578385  -111  0  0  0  0
H  18.42429729  4.26912264  3.365241176  -111  0  0  0  0
H  20.09474467  4.25032911  2.776818049  -111  0  0  0  0
H  19.29962786  2.210662789  1.419813419  -111  0  0  0  0
H  17.61374684  2.445217613  1.904196344  -111  0  0  0  0
H  18.03575065  2.378108114  0.192713213  111  0  0  0  0
H  20.36471279  3.917840407  -0.01771225  0  33  0  0  0
Al  23.03052365  3.078113263  0.88029998  -2  35  33  36  34
O  21.60283555  2.704648763  -0.094205648  -1  31  32  0  0
O  23.5023867  1.636857465  1.724521074  -1  32  45  0  0
O  24.3355833  3.644072432  -0.087324161  -1  37  32  0  0
O  22.44368888  4.346845527  1.899127926  -1  32  49  0  0
Si  25.24927019  3.08180829  -1.268544556  -2  38  54  53  35
O  24.37200033  2.573645796  -2.579763439  -1  39  37  0  0
Si  23.46684111  1.304846541  -3.051470597  -2  63  62  38  40
O  22.46558408  0.803888297  -1.84094113  -1  39  41  0  0
Si  21.26496265  1.335032819  -0.861614665  -2  40  50  42  0
O  20.84572557  0.104597061  0.117794563  -1  41  43  0  0
Si  21.29846316  -0.897649773  1.335259553  -2  42  64  65  44
O  21.73890528  -0.10560593  2.690728143  -1  43  45  0  0
Si  23.04497219  0.839667589  3.031155742  -2  34  44  52  46
O  22.58769742  1.809671697  4.276196227  -1  45  47  0  0
Si  23.06504131  3.056591421  5.211860971  -2  48  46  72  73
O  23.63312131  4.322019252  4.338520293  -1  49  47  0  0
Si  23.06411032  5.217719849  3.086303108  -2  36  56  55  48
O  19.96495906  1.763044692  -1.759446058  -1  51  41  0  0
Si  19.13340608  1.274408913  -3.057944055  -2  67  66  68  50
O  24.26097825  -0.082621338  3.478014168  -1  45  57  0  0
O  26.19887825  1.855278662  -0.806685832  -1  58  37  0  0
O  26.12097825  4.309278662  -1.746385832  -1  59  37  0  0
O  21.80707825  6.086378662  3.548614168  -1  49  60  0  0
O  24.26097825  6.169178662  2.606414168  -1  61  49  0  0
Si  25.22997825  -1.292521338  3.044714168  -23  70  69  52  71
Si  27.38937825  0.886378662  -1.293585832  -23  74  76  53  75
Si  27.38447825  5.200278662  -1.293585832  -23  77  54  78  79
Si  21.29817825  6.972578662  4.792614168  -23  55  82  80  81
Si  25.22997825  7.379178662  3.039814168  -23  85  56  83  84
O  24.42657825  0.082978662  -3.479785832  -1  86  39  0  0
O  22.56657825  1.745678662  -4.309985832  -1  87  39  0  0
O  22.48867825  -1.854921338  0.804914168  -1  88  43  0  0
O  20.03467825  -1.777021338  1.744614168  -1  89  43  0  0
O  18.25747825  2.536978662  -3.550385832  -1  90  51  0  0
O  20.11257825  0.805978662  -4.232085832  -1  87  51  0  0
O  18.17477825  0.082978662  -2.608185832  -1  51  91  0  0
O  24.34377825  -2.536621338  2.535914168  -1  88  57  0  0
O  26.19887825  -0.805621338  1.854214168  -1  92  57  0  0
O  26.12097825  -1.745321338  4.308214168  -1  57  93  0  0
O  21.80707825  3.549678662  6.085314168  -1  47  94  0  0
O  24.26097825  2.607478662  6.168114168  -1  47  95  0  0
O  26.88057825  0.000178662  -2.537685832  -1  86  58  0  0
O  27.82267825  -0.082621338  -0.083685832  -1  58  92  0  0
O  28.65287825  1.777378662  -1.746385832  -1  58  96  0  0
O  27.89327825  6.086378662  -2.537685832  -1  97  59  0  0
O  28.57497825  4.231378662  -0.806685832  -1  59  96  0  0
O  26.95107825  6.169178662  -0.083685832  -1  59  98  0  0
O  22.48867825  7.941478662  5.279514168  -1  99  60  0  0
O  20.86487825  6.003678662  6.002614168  -1  60  94  0  0
O  20.03467825  7.863578662  4.339814168  -1  614  60  0  0
O  24.34377825  8.623178662  3.548614168  -1  61  99  0  0
O  26.19887825  6.892278662  4.230314168  -1  61  100  0  0
O  26.12097825  7.831978662  1.776314168  -1  98  61  0  0
Si  25.63647825  -0.886021338  -3.046485832  -23  102  62  74  101
Si  21.30307825  1.292878662  -5.200985832  -22  104  103  63  67
Si  23.45757825  -3.045421338  1.291814168  -23  105  64  106  69
Si  19.14367825  -3.040521338  1.291814168  -23  109  108  65  107
Si  17.37137825  3.045778662  -4.794385832  -23  111  110  112  66
Si  16.96477825  -0.886021338  -3.041585832  -23  114  113  68  115
Si  27.38937825  -1.292521338  0.885314168  -2  75  116  117  70
Si  27.38447825  -1.292521338  5.199214168  -2  119  71  118  120
Si  21.29817825  4.793678662  6.971514168  -23  81  72  122  121
Si  25.22997825  3.040878662  7.378114168  -23  73  124  125  123
Si  29.54387825  3.040878662  -1.293585832  -2  126  76  78  127
Si  29.13727825  6.972578662  -3.046485832  -2  130  129  77  128
Si  27.38447825  7.379178662  0.885314168  -2  79  131  85  132
Si  23.45757825  9.131978662  4.792614168  -2  83  134  80  133
Si  27.38937825  7.379178662  5.199214168  -2  84  138  136  137
O  25.14957825  -1.854921338  -1.855985832  -1  86  139  0  0
O  26.08927825  -1.777021338  -4.309985832  -1  140  86  0  0
O  20.79427825  2.536978662  -6.087085832  -1  141  87  0  0
O  21.73637825  0.082978662  -6.169885832  -1  142  87  0  0
O  24.42657825  -3.478721338  0.081914168  -1  139  88  0  0
O  22.56657825  -4.308921338  1.744614168  -1  88  143  0  0
O  18.25747825  -3.549321338  2.535914168  -1  89  144  0  0
O  20.11257825  -4.231021338  0.804914168  -1  89  143  0  0
O  18.17477825  -2.607121338  0.081914168  -1  145  89  0  0
O  16.40247825  1.855278662  -5.281285832  -1  90  146  0  0
O  18.34027825  3.479078662  -6.004385832  -1  141  90  0  0
O  16.48037825  4.309278662  -4.341585832  -1  90  147  0  0
O  15.72077825  0.000178662  -3.550385832  -1  146  91  0  0
O  17.45167825  -1.854921338  -4.232085832  -1  148  91  0  0
O  16.51197825  -1.777021338  -1.778085832  -1  91  145  0  0
O  26.88057825  -2.536621338  -0.000885832  -1  139  92  0  0
O  28.65287825  -1.745321338  1.776314168  -1  92  149  0  0
O  27.89327825  -2.536621338  6.085314168  -1  93  150  0  0
O  28.57497825  -0.805621338  4.230314168  -1  149  93  0  0
O  26.95107825  -0.082621338  6.168114168  -1  93  151  0  0
O  22.48867825  5.280578662  7.940414168  -1  94  152  0  0
O  20.03467825  4.340878662  7.862514168  -1  94  615  0  0
O  24.34377825  3.549678662  8.622114168  -1  95  152  0  0
O  26.19887825  4.231378662  6.891214168  -1  153  95  0  0
O  26.12097825  1.777378662  7.830914168  -1  95  151  0  0
O  30.42997825  3.549678662  -2.537685832  -1  154  96  0  0
O  30.51277825  2.607478662  -0.083685832  -1  96  155  0  0
O  29.62417825  7.941478662  -1.855985832  -1  97  156  0  0
O  30.34727825  6.003678662  -3.479785832  -1  154  97  0  0
O  28.68447825  7.863578662  -4.309985832  -1  157  97  0  0
O  27.89327825  8.623178662  -0.000885832  -1  156  98  0  0
O  28.57497825  6.892278662  1.854214168  -1  98  158  0  0
O  24.42657825  9.565278662  6.002614168  -1  99  159  0  0
O  22.56657825  10.39547866  4.339814168  -1  160  99  0  0
O  20.11257825  10.31757866  5.279514168  -1  160  616  0  0
O  26.88057825  8.623178662  6.085314168  -1  100  159  0  0
O  27.82267825  6.169178662  6.168114168  -1  100  153  0  0
O  28.65287825  7.831978662  4.308214168  -1  158  100  0  0
Si  25.63647825  -3.045421338  -0.887085832  -2  101  161  116  105
Si  25.63647825  -3.040521338  -5.200985832  -2  164  162  102  163
Si  19.55027825  3.045778662  -6.973285832  -2  165  166  103  111
Si  21.30307825  -0.886021338  -7.379885832  -2  167  169  168  104
Si  21.30307825  -5.199921338  1.291814168  -2  171  108  106  170
Si  17.37137825  -4.793321338  3.044714168  -2  172  107  173  174
Si  16.96477825  -3.040521338  -0.887085832  -2  176  115  175  109
Si  15.21197825  0.886378662  -4.794385832  -2  177  110  178  113
Si  15.21687825  5.200278662  -4.794385832  -2  181  180  112  179
Si  16.96477825  -3.045421338  -5.200985832  -2  183  182  184  114
Si  29.54387825  -1.292521338  3.039814168  -2  117  186  185  119
Si  29.13727825  -3.045421338  6.971514168  -2  188  118  189  187
Si  27.38447825  0.886378662  7.378114168  -2  120  191  125  190
Si  23.45757825  4.793678662  9.130914168  -2  121  123  192  193
Si  27.38937825  5.200278662  7.378114168  -2  137  124  196  195
Si  31.31617825  4.793678662  -3.046485832  -2  198  129  126  197
Si  31.72277825  3.040878662  0.885314168  -2  127  199  201  200
Si  29.13727825  9.131978662  -0.887085832  -2  128  203  131  202
Si  29.13727825  9.127078662  -5.200985832  -2  206  204  130  205
Si  29.54387825  7.379178662  3.044714168  -2  132  207  208  138
Si  25.63647825  9.131978662  6.971514168  -2  133  136  210  209
Si  21.30307825  11.28647866  4.792614168  -2  211  134  135  212
O  26.08927825  -4.308921338  -1.778085832  -1  213  139  0  0
O  26.88057825  -3.549321338  -6.087085832  -1  214  140  0  0
O  25.14957825  -4.231021338  -4.232085832  -1  140  213  0  0
O  24.42657825  -2.607121338  -6.169885832  -1  215  140  0  0
O  19.06337825  1.855278662  -7.942185832  -1  216  141  0  0
O  20.00307825  4.309278662  -7.864285832  -1  217  141  0  0
O  20.79427825  0.000178662  -8.623885832  -1  216  142  0  0
O  20.11257825  -1.854921338  -6.892985832  -1  142  218  0  0
O  22.56657825  -1.777021338  -7.832685832  -1  215  142  0  0
O  20.79427825  -6.086021338  2.535914168  -1  143  219  0  0
O  21.73637825  -6.168821338  0.081914168  -1  220  143  0  0
O  16.40247825  -5.280221338  1.854214168  -1  221  144  0  0
O  18.34027825  -6.003321338  3.478014168  -1  144  219  0  0
O  16.48037825  -4.340521338  4.308214168  -1  144  222  0  0
O  15.72077825  -3.549321338  -0.000885832  -1  145  221  0  0
O  17.45167825  -4.231021338  -1.855985832  -1  223  145  0  0
O  14.77857825  -0.082621338  -6.004385832  -1  224  146  0  0
O  13.94847825  1.777378662  -4.341585832  -1  146  225  0  0
O  14.70807825  6.086378662  -3.550385832  -1  147  617  0  0
O  14.02637825  4.231378662  -5.281285832  -1  225  147  0  0
O  15.65017825  6.169178662  -6.004385832  -1  226  147  0  0
O  15.72077825  -2.536621338  -6.087085832  -1  224  148  0  0
O  18.17477825  -3.478721338  -6.169885832  -1  218  148  0  0
O  16.51197825  -4.308921338  -4.309985832  -1  148  223  0  0
O  30.42997825  -2.536621338  3.548614168  -1  149  227  0  0
O  30.51277825  -0.082621338  2.606414168  -1  149  228  0  0
O  29.62417825  -1.854921338  7.940414168  -1  150  229  0  0
O  30.34727825  -3.478721338  6.002614168  -1  227  150  0  0
O  28.68447825  -4.308921338  7.862514168  -1  150  230  0  0
O  27.89327825  0.000178662  8.622114168  -1  151  229  0  0
O  28.57497825  1.855278662  6.891214168  -1  231  151  0  0
O  24.42657825  6.003678662  9.564214168  -1  152  232  0  0
O  22.56657825  4.340878662  10.39441417  -1  152  233  0  0
O  20.11257825  5.280578662  10.31651417  -1  618  233  0  0
O  26.88057825  6.086378662  8.622114168  -1  153  232  0  0
O  28.65287825  4.309278662  7.830914168  -1  153  231  0  0
O  32.28507825  5.280578662  -1.855985832  -1  154  234  0  0
O  32.20717825  4.340878662  -4.309985832  -1  235  154  0  0
O  32.96677825  3.549678662  -0.000885832  -1  234  155  0  0
O  31.23587825  4.231378662  1.854214168  -1  155  236  0  0
O  32.17557825  1.777378662  1.776314168  -1  155  228  0  0
O  30.34727825  9.565278662  0.081914168  -1  156  237  0  0
O  28.68447825  10.39547866  -1.778085832  -1  238  156  0  0
O  27.89327825  9.635878662  -6.087085832  -1  239  157  0  0
O  29.62417825  10.31757866  -4.232085832  -1  157  238  0  0
O  30.34727825  8.693778662  -6.169885832  -1  240  157  0  0
O  30.42997825  8.623178662  2.535914168  -1  237  158  0  0
O  30.51277825  6.169178662  3.478014168  -1  158  236  0  0
O  25.14957825  7.941478662  7.940414168  -1  159  232  0  0
O  26.08927825  10.39547866  7.862514168  -1  159  241  0  0
O  20.79427825  12.17267866  3.548614168  -1  619  160  0  0
O  21.73637825  12.25547866  6.002614168  -1  160  242  0  0
Si  25.63647825  -5.199921338  -3.041585832  -2  163  243  244  161
Si  27.38937825  -4.793321338  -6.973285832  -2  245  247  162  246
Si  23.45757825  -3.040521338  -7.379885832  -2  248  169  249  164
Si  19.55027825  0.886378662  -9.132685832  -2  251  250  167  165
Si  19.55027825  5.200278662  -9.127785832  -2  253  252  254  166
Si  19.14367825  -3.045421338  -7.379885832  -2  255  256  168  183
Si  19.55027825  -6.972221338  3.044714168  -2  257  170  173  258
Si  21.30307825  -7.378821338  -0.887085832  -2  260  261  259  171
Si  15.21197825  -4.793321338  0.885314168  -2  262  175  263  172
Si  15.21687825  -4.793321338  5.199214168  -2  265  174  264  266
Si  16.96477825  -5.199921338  -3.046485832  -2  184  268  267  176
Si  15.21197825  -1.292521338  -6.973285832  -2  269  270  182  177
Si  13.05747825  3.040878662  -4.794385832  -2  272  180  178  271
Si  15.21687825  7.379178662  -6.973285832  -2  274  275  273  181
Si  31.31617825  -3.045421338  4.792614168  -2  185  277  276  188
Si  31.72277825  0.886378662  3.039814168  -2  201  186  278  279
Si  29.13727825  -0.886021338  9.130914168  -2  187  190  280  281
Si  29.13727825  -5.199921338  9.126014168  -2  189  284  282  283
Si  29.54387825  3.045778662  7.378114168  -2  286  191  196  285
Si  25.63647825  6.972578662  9.130914168  -2  209  195  192  287
Si  21.30307825  4.793678662  11.28541417  -2  194  193  288  289
Si  33.47557825  4.793678662  -0.887085832  -2  197  291  199  290
Si  33.47067825  4.793678662  -5.200985832  -2  294  292  198  293
Si  31.72277825  5.200278662  3.044714168  -2  200  295  208  296
Si  31.31617825  9.131978662  1.291814168  -2  202  297  298  207
Si  29.13727825  11.28647866  -3.041585832  -2  205  299  300  203
Si  27.38447825  10.87997866  -6.973285832  -2  301  303  204  302
Si  31.31617825  9.127078662  -7.379885832  -2  304  306  305  206
Si  25.63647825  11.28647866  9.126014168  -2  210  309  307  308
Si  21.30307825  13.46537866  6.971514168  -2  212  310  312  311
O  26.88057825  -6.086021338  -3.550385832  -1  313  213  0  0
O  24.42657825  -6.168821338  -2.608185832  -1  314  213  0  0
O  26.19887825  -5.280221338  -7.942185832  -1  315  214  0  0
O  27.82267825  -6.003321338  -6.004385832  -1  214  313  0  0
O  28.65287825  -4.340521338  -7.864285832  -1  316  214  0  0
O  24.34377825  -3.549321338  -8.623885832  -1  315  215  0  0
O  22.48867825  -4.231021338  -6.892985832  -1  215  317  0  0
O  18.34027825  -0.082621338  -9.565985832  -1  216  318  0  0
O  20.00307825  1.777378662  -10.39618583  -1  319  216  0  0
O  20.79427825  6.086378662  -9.636585832  -1  320  217  0  0
O  19.06337825  4.231378662  -10.31828583  -1  319  217  0  0
O  18.34027825  6.169178662  -8.694485832  -1  321  217  0  0
O  18.25747825  -2.536621338  -8.623885832  -1  318  218  0  0
O  20.03467825  -4.308921338  -7.832685832  -1  317  218  0  0
O  19.06337825  -7.941121338  1.854214168  -1  322  219  0  0
O  20.00307825  -7.863221338  4.308214168  -1  219  323  0  0
O  20.79427825  -8.622821338  -0.000885832  -1  220  322  0  0
O  20.11257825  -6.891921338  -1.855985832  -1  324  220  0  0
O  22.56657825  -7.831621338  -1.778085832  -1  314  220  0  0
O  14.77857825  -6.003321338  -0.083685832  -1  325  221  0  0
O  13.94847825  -4.340521338  1.776314168  -1  221  326  0  0
O  14.70807825  -3.549321338  6.085314168  -1  222  620  0  0
O  14.02637825  -5.280221338  4.230314168  -1  326  222  0  0
O  15.65017825  -6.003321338  6.168114168  -1  222  327  0  0
O  15.72077825  -6.086021338  -2.537685832  -1  223  325  0  0
O  18.17477825  -6.168821338  -3.479785832  -1  223  324  0  0
O  16.40247825  -0.805621338  -7.942185832  -1  318  224  0  0
O  13.94847825  -1.745321338  -7.864285832  -1  328  224  0  0
O  12.17127825  3.549678662  -3.550385832  -1  225  621  0  0
O  12.08847825  2.607478662  -6.004385832  -1  329  225  0  0
O  14.70807825  8.623178662  -6.087085832  -1  226  622  0  0
O  14.02637825  6.892278662  -7.942185832  -1  330  226  0  0
O  16.48037825  7.831978662  -7.864285832  -1  321  226  0  0
O  32.28507825  -1.854921338  5.279514168  -1  331  227  0  0
O  32.20717825  -4.308921338  4.339814168  -1  332  227  0  0
O  32.96677825  0.000178662  3.548614168  -1  228  331  0  0
O  31.23587825  1.855278662  4.230314168  -1  228  333  0  0
O  30.34727825  0.082978662  9.564214168  -1  229  334  0  0
O  28.68447825  -1.777021338  10.39441417  -1  229  335  0  0
O  27.89327825  -6.086021338  9.634814168  -1  230  336  0  0
O  29.62417825  -4.231021338  10.31651417  -1  230  335  0  0
O  30.34727825  -6.168821338  8.692714168  -1  230  337  0  0
O  30.42997825  2.536978662  8.622114168  -1  231  334  0  0
O  30.51277825  3.479078662  6.168114168  -1  333  231  0  0
O  26.08927825  7.863578662  10.39441417  -1  232  338  0  0
O  20.79427825  3.549678662  12.17161417  -1  233  623  0  0
O  21.73637825  6.003678662  12.25441417  -1  233  339  0  0
O  33.90897825  6.003678662  0.081914168  -1  234  340  0  0
O  34.73907825  4.340878662  -1.778085832  -1  341  234  0  0
O  33.97957825  3.549678662  -6.087085832  -1  342  235  0  0
O  34.66117825  5.280578662  -4.232085832  -1  235  341  0  0
O  33.03737825  6.003678662  -6.169885832  -1  343  235  0  0
O  32.96677825  6.086378662  2.535914168  -1  340  236  0  0
O  32.17557825  4.309278662  4.308214168  -1  236  333  0  0
O  32.28507825  7.941478662  0.804914168  -1  237  340  0  0
O  32.20717825  10.39547866  1.744614168  -1  237  344  0  0
O  27.89327825  12.17267866  -3.550385832  -1  345  238  0  0
O  30.34727825  12.25547866  -2.608185832  -1  238  346  0  0
O  28.57497825  11.36687866  -7.942185832  -1  347  239  0  0
O  26.95107825  12.08987866  -6.004385832  -1  239  345  0  0
O  26.12097825  10.42717866  -7.864285832  -1  348  239  0  0
O  30.42997825  9.635878662  -8.623885832  -1  347  240  0  0
O  32.28507825  10.31757866  -6.892985832  -1  349  240  0  0
O  32.20717825  7.863578662  -7.832685832  -1  343  240  0  0
O  26.88057825  12.17267866  9.634814168  -1  241  350  0  0
O  25.14957825  10.31757866  10.31651417  -1  241  338  0  0
O  24.42657825  12.25547866  8.692714168  -1  351  241  0  0
O  20.79427825  14.70947866  6.085314168  -1  624  242  0  0
O  20.11257825  12.97847866  7.940414168  -1  242  625  0  0
O  22.56657825  13.91817866  7.862514168  -1  242  351  0  0
Si  27.38937825  -6.972221338  -4.794385832  -2  246  352  353  243
Si  23.45757825  -7.378821338  -3.041585832  -2  355  354  244  261
Si  25.22997825  -4.793321338  -9.132685832  -2  357  356  248  245
Si  29.54387825  -4.793321338  -9.127785832  -2  359  358  360  247
Si  21.29817825  -5.199921338  -7.379885832  -2  361  256  249  362
Si  17.37137825  -1.292521338  -9.132685832  -2  363  250  255  269
Si  19.55027825  3.040878662  -11.28718583  -2  365  364  251  253
Si  21.30307825  6.972578662  -10.88068583  -2  367  366  368  252
Si  17.37137825  7.379178662  -9.127785832  -2  370  369  254  275
Si  19.55027825  -9.131621338  0.885314168  -2  371  259  372  257
Si  19.55027825  -9.126721338  5.199214168  -2  374  258  373  375
Si  19.14367825  -7.378821338  -3.046485832  -2  377  268  376  260
Si  15.21197825  -6.972221338  -1.293585832  -2  267  379  378  262
Si  13.05747825  -4.793321338  3.039814168  -2  263  381  380  265
Si  15.21687825  -6.972221338  7.378114168  -2  266  383  384  382
Si  13.05747825  -1.292521338  -9.127785832  -2  386  385  387  270
Si  10.87857825  3.040878662  -6.973285832  -2  389  390  388  272
Si  13.05747825  7.379178662  -9.132685832  -2  393  392  391  274
Si  33.47557825  -0.886021338  4.792614168  -2  278  395  276  394
Si  33.47067825  -5.199921338  4.792614168  -2  396  277  397  398
Si  31.72277825  3.045778662  5.199214168  -2  279  296  399  286
Si  31.31617825  1.292878662  9.130914168  -2  400  285  280  401
Si  29.13727825  -3.040521338  11.28541417  -2  283  281  402  403
Si  27.38447825  -6.972221338  10.87891417  -2  282  406  404  405
Si  31.31617825  -7.378821338  9.126014168  -2  409  284  407  408
Si  25.63647825  9.127078662  11.28541417  -2  308  287  410  411
Si  21.30307825  6.972578662  13.46431417  -2  289  413  414  412
Si  33.47557825  6.972578662  1.291814168  -2  290  297  415  295
Si  35.63007825  4.793678662  -3.041585832  -2  293  416  417  291
Si  35.22357825  3.040878662  -6.973285832  -2  418  420  292  419
Si  33.47067825  6.972578662  -7.379885832  -2  421  306  422  294
Si  33.47067825  11.28647866  1.291814168  -2  425  424  298  423
Si  27.38447825  13.05887866  -4.794385832  -2  302  426  427  299
Si  31.31617825  13.46537866  -3.041585832  -2  429  428  300  430
Si  29.54387825  10.87997866  -9.132685832  -2  432  431  304  301
Si  25.22997825  10.87997866  -9.127785832  -2  434  433  435  303
Si  33.47557825  11.28647866  -7.379885832  -2  436  438  305  437
Si  27.38937825  13.05887866  10.87891417  -2  307  441  439  440
Si  23.45757825  13.46537866  9.126014168  -2  312  309  442  443
O  26.19887825  -7.941121338  -5.281285832  -1  444  313  0  0
O  28.65287825  -7.863221338  -4.341585832  -1  445  313  0  0
O  24.34377825  -8.622821338  -3.550385832  -1  444  314  0  0
O  22.48867825  -6.891921338  -4.232085832  -1  446  314  0  0
O  24.26097825  -6.003321338  -9.565985832  -1  315  447  0  0
O  26.12097825  -4.340521338  -10.39618583  -1  448  315  0  0
O  30.42997825  -3.549321338  -9.636585832  -1  449  316  0  0
O  28.57497825  -5.280221338  -10.31828583  -1  448  316  0  0
O  30.51277825  -6.003321338  -8.694485832  -1  450  316  0  0
O  21.80707825  -6.086021338  -8.623885832  -1  447  317  0  0
O  20.86487825  -6.168821338  -6.169885832  -1  317  446  0  0
O  16.48037825  -1.745321338  -10.39618583  -1  451  318  0  0
O  20.79427825  3.549678662  -12.17338583  -1  452  319  0  0
O  18.34027825  2.607478662  -12.25618583  -1  453  319  0  0
O  20.11257825  7.941478662  -11.36758583  -1  320  454  0  0
O  21.73637825  6.003678662  -12.09058583  -1  452  320  0  0
O  22.56657825  7.863578662  -10.42788583  -1  320  455  0  0
O  18.25747825  8.623178662  -9.636585832  -1  454  321  0  0
O  16.40247825  6.892278662  -10.31828583  -1  456  321  0  0
O  18.34027825  -9.564921338  -0.083685832  -1  457  322  0  0
O  20.00307825  -10.39512134  1.776314168  -1  322  458  0  0
O  20.79427825  -9.635521338  6.085314168  -1  323  459  0  0
O  19.06337825  -10.31722134  4.230314168  -1  458  323  0  0
O  18.34027825  -8.693421338  6.168114168  -1  323  460  0  0
O  18.25747825  -8.622821338  -2.537685832  -1  324  457  0  0
O  20.03467825  -7.831621338  -4.309985832  -1  446  324  0  0
O  16.40247825  -7.941121338  -0.806685832  -1  457  325  0  0
O  13.94847825  -7.863221338  -1.746385832  -1  325  461  0  0
O  12.17127825  -3.549321338  3.548614168  -1  326  626  0  0
O  12.08847825  -6.003321338  2.606414168  -1  326  462  0  0
O  14.70807825  -6.086021338  8.622114168  -1  327  627  0  0
O  14.02637825  -7.941121338  6.891214168  -1  327  463  0  0
O  16.48037825  -7.863221338  7.830914168  -1  460  327  0  0
O  12.17127825  -2.536621338  -9.636585832  -1  464  328  0  0
O  14.02637825  -0.805621338  -10.31828583  -1  451  328  0  0
O  12.08847825  -0.082621338  -8.694485832  -1  465  328  0  0
O  9.634478249  3.549678662  -6.087085832  -1  329  628  0  0
O  11.36547825  4.231378662  -7.942185832  -1  466  329  0  0
O  10.42577825  1.777378662  -7.864285832  -1  465  329  0  0
O  12.17127825  8.623178662  -8.623885832  -1  330  629  0  0
O  12.08847825  6.169178662  -9.565985832  -1  330  466  0  0
O  13.94847825  7.831978662  -10.39618583  -1  456  330  0  0
O  33.90897825  0.082978662  6.002614168  -1  331  467  0  0
O  34.73907825  -1.777021338  4.339814168  -1  468  331  0  0
O  33.97957825  -6.086021338  3.548614168  -1  469  332  0  0
O  34.66117825  -4.231021338  5.279514168  -1  468  332  0  0
O  33.03737825  -6.168821338  6.002614168  -1  332  470  0  0
O  32.96677825  2.536978662  6.085314168  -1  333  467  0  0
O  32.28507825  0.805978662  7.940414168  -1  467  334  0  0
O  32.20717825  1.745678662  10.39441417  -1  334  471  0  0
O  27.89327825  -3.549321338  12.17161417  -1  335  472  0  0
O  30.34727825  -2.607121338  12.25441417  -1  335  473  0  0
O  28.57497825  -7.941121338  11.36581417  -1  336  474  0  0
O  26.95107825  -6.003321338  12.08881417  -1  336  472  0  0
O  26.12097825  -7.863221338  10.42611417  -1  336  475  0  0
O  30.42997825  -8.622821338  9.634814168  -1  337  474  0  0
O  32.28507825  -6.891921338  10.31651417  -1  337  476  0  0
O  32.20717825  -7.831621338  7.862514168  -1  470  337  0  0
O  26.88057825  9.635878662  12.17161417  -1  338  477  0  0
O  24.42657825  8.693778662  12.25441417  -1  338  478  0  0
O  20.79427825  6.086378662  14.70841417  -1  339  630  0  0
O  20.11257825  7.941478662  12.97741417  -1  631  339  0  0
O  22.56657825  7.863578662  13.91711417  -1  478  339  0  0
O  34.73907825  7.863578662  1.744614168  -1  479  340  0  0
O  36.51627825  3.549678662  -3.550385832  -1  480  341  0  0
O  36.59907825  6.003678662  -2.608185832  -1  481  341  0  0
O  35.71047825  4.231378662  -7.942185832  -1  482  342  0  0
O  36.43347825  2.607478662  -6.004385832  -1  342  480  0  0
O  34.77077825  1.777378662  -7.864285832  -1  483  342  0  0
O  33.97957825  6.086378662  -8.623885832  -1  482  343  0  0
O  34.66117825  7.941478662  -6.892985832  -1  484  343  0  0
O  33.97957825  12.17267866  2.535914168  -1  344  485  0  0
O  34.66117825  10.31757866  0.804914168  -1  479  344  0  0
O  33.03737825  12.25547866  0.081914168  -1  486  344  0  0
O  28.57497825  14.02777866  -5.281285832  -1  345  487  0  0
O  26.12097825  13.94987866  -4.341585832  -1  345  488  0  0
O  30.42997825  14.70947866  -3.550385832  -1  487  346  0  0
O  32.28507825  12.97847866  -4.232085832  -1  489  346  0  0
O  32.20717825  13.91817866  -1.778085832  -1  346  486  0  0
O  30.51277825  12.08987866  -9.565985832  -1  347  490  0  0
O  28.65287825  10.42717866  -10.39618583  -1  491  347  0  0
O  24.34377825  9.635878662  -9.636585832  -1  455  348  0  0
O  26.19887825  11.36687866  -10.31828583  -1  491  348  0  0
O  24.26097825  12.08987866  -8.694485832  -1  348  492  0  0
O  32.96677825  12.17267866  -8.623885832  -1  490  349  0  0
O  33.90897825  12.25547866  -6.169885832  -1  349  489  0  0
O  34.73907825  10.39547866  -7.832685832  -1  484  349  0  0
O  26.19887825  14.02777866  11.36581417  -1  350  493  0  0
O  27.82267825  12.08987866  12.08881417  -1  350  477  0  0
O  28.65287825  13.94987866  10.42611417  -1  350  494  0  0
O  24.34377825  14.70947866  9.634814168  -1  351  493  0  0
O  22.48867825  12.97847866  10.31651417  -1  351  632  0  0
Si  25.22997825  -9.131621338  -4.794385832  -2  495  352  496  354
Si  29.54387825  -9.126721338  -4.794385832  -2  499  498  353  497
Si  21.29817825  -7.378821338  -5.200985832  -2  362  500  377  355
Si  23.05107825  -6.972221338  -9.132685832  -2  502  356  361  501
Si  27.38447825  -4.793321338  -11.28718583  -2  504  503  357  359
Si  31.31617825  -3.040521338  -10.88068583  -2  506  505  507  358
Si  31.72277825  -6.972221338  -9.127785832  -2  509  508  360  510
Si  15.21687825  -1.292521338  -11.28718583  -2  512  511  363  386
Si  21.30307825  4.793678662  -13.05958583  -2  513  514  364  367
Si  17.37137825  3.040878662  -13.46608583  -2  515  517  516  365
Si  19.14367825  9.131978662  -10.88068583  -2  518  366  519  369
Si  23.45757825  9.127078662  -10.88068583  -2  521  520  368  433
Si  15.21197825  7.379178662  -11.28718583  -2  523  522  393  370
Si  17.37137825  -9.131621338  -1.293585832  -2  376  524  378  371
Si  19.55027825  -11.28612134  3.039814168  -2  372  526  525  374
Si  21.30307825  -10.87962134  6.971514168  -2  528  373  529  527
Si  17.37137825  -9.126721338  7.378114168  -2  375  531  384  530
Si  13.05747825  -9.126721338  -1.293585832  -2  532  379  533  534
Si  10.87857825  -6.972221338  3.039814168  -2  537  381  535  536
Si  13.05747825  -9.131621338  7.378114168  -2  539  383  540  538
Si  11.28507825  -3.045421338  -10.88068583  -2  542  541  543  385
Si  10.87857825  0.886378662  -9.127785832  -2  545  544  387  390
Si  10.87857825  5.200278662  -9.132685832  -2  547  392  546  389
Si  33.47557825  1.292878662  6.971514168  -2  394  399  548  400
Si  35.63007825  -3.040521338  4.792614168  -2  549  395  397  550
Si  35.22357825  -6.972221338  3.039814168  -2  553  552  396  551
Si  33.47067825  -7.378821338  6.971514168  -2  398  554  409  555
Si  33.47067825  1.292878662  11.28541417  -2  557  401  556  558
Si  27.38447825  -4.793321338  13.05781417  -2  405  402  560  559
Si  31.31617825  -3.040521338  13.46431417  -2  403  562  563  561
Si  29.54387825  -9.131621338  10.87891417  -2  407  565  404  564
Si  25.22997825  -9.126721338  10.87891417  -2  566  406  567  568
Si  33.47557825  -7.378821338  11.28541417  -2  408  571  569  570
Si  27.38937825  10.87997866  13.05781417  -2  440  410  573  572
Si  23.45757825  9.127078662  13.46431417  -2  411  575  414  574
Si  35.63007825  9.127078662  1.291814168  -2  577  424  415  576
Si  37.40247825  3.040878662  -4.794385832  -2  419  578  579  416
Si  37.80897825  6.972578662  -3.041585832  -2  581  580  417  582
Si  35.22357825  5.200278662  -9.132685832  -2  584  583  421  418
Si  35.22357825  0.886378662  -9.127785832  -2  586  585  587  420
Si  35.63007825  9.131978662  -7.379885832  -2  588  438  422  589
Si  35.22357825  13.05887866  3.044714168  -2  590  423  591  592
Si  33.47067825  13.46537866  -0.887085832  -2  594  430  593  425
Si  29.54387825  15.21827866  -4.794385832  -2  595  426  596  428
Si  25.22997825  15.21337866  -4.794385832  -2  599  598  427  597
Si  33.47557825  13.46537866  -5.200985832  -2  437  600  601  429
Si  31.72277825  13.05887866  -9.132685832  -2  603  431  436  602
Si  27.38937825  10.87997866  -11.28718583  -2  605  604  432  434
Si  23.05107825  13.05887866  -9.127785832  -2  607  606  435  608
Si  25.22997825  15.21827866  10.87891417  -2  442  610  439  609
Si  29.54387825  15.21337866  10.87891417  -2  611  441  612  613
H  24.26097825  -9.564921338  -6.004385832  -3  444  0  0  0
H  26.12097825  -10.39512134  -4.341585832  -3  444  0  0  0
H  30.42997825  -9.635521338  -3.550385832  -3  445  0  0  0
H  28.57497825  -10.31722134  -5.281285832  -3  445  0  0  0
H  30.51277825  -8.693421338  -6.004385832  -3  445  0  0  0
H  21.80707825  -8.622821338  -6.087085832  -3  446  0  0  0
H  23.53797825  -7.941121338  -7.942185832  -3  447  0  0  0
H  22.59827825  -7.863221338  -10.39618583  -3  447  0  0  0
H  27.89327825  -3.549321338  -12.17338583  -3  448  0  0  0
H  26.95107825  -6.003321338  -12.25618583  -3  448  0  0  0
H  32.28507825  -4.231021338  -11.36758583  -3  449  0  0  0
H  30.34727825  -2.607121338  -12.09058583  -3  449  0  0  0
H  32.20717825  -1.777021338  -10.42788583  -3  449  0  0  0
H  32.96677825  -6.086021338  -9.636585832  -3  450  0  0  0
H  31.23587825  -7.941121338  -10.31828583  -3  450  0  0  0
H  32.17557825  -7.863221338  -7.864285832  -3  450  0  0  0
H  14.70807825  -2.536621338  -12.17338583  -3  451  0  0  0
H  15.65017825  -0.082621338  -12.25618583  -3  451  0  0  0
H  20.11257825  5.280578662  -14.02848583  -3  452  0  0  0
H  22.56657825  4.340878662  -13.95058583  -3  452  0  0  0
H  18.25747825  3.549678662  -14.71018583  -3  453  0  0  0
H  16.40247825  4.231378662  -12.97918583  -3  453  0  0  0
H  16.48037825  1.777378662  -13.91888583  -3  453  0  0  0
H  18.17477825  9.565278662  -12.09058583  -3  454  0  0  0
H  20.03467825  10.39547866  -10.42788583  -3  454  0  0  0
H  22.48867825  10.31757866  -11.36758583  -3  455  0  0  0
H  24.42657825  8.693778662  -12.09058583  -3  455  0  0  0
H  15.72077825  8.623178662  -12.17338583  -3  456  0  0  0
H  14.77857825  6.169178662  -12.25618583  -3  456  0  0  0
H  16.48037825  -10.39512134  -1.746385832  -3  457  0  0  0
H  20.79427825  -12.17232134  3.548614168  -3  458  0  0  0
H  18.34027825  -12.25512134  2.606414168  -3  458  0  0  0
H  20.11257825  -11.36652134  7.940414168  -3  459  0  0  0
H  21.73637825  -12.08952134  6.002614168  -3  459  0  0  0
H  22.56657825  -10.42682134  7.862514168  -3  459  0  0  0
H  18.25747825  -9.635521338  8.622114168  -3  460  0  0  0
H  16.40247825  -10.31722134  6.891214168  -3  460  0  0  0
H  12.17127825  -9.635521338  -2.537685832  -3  461  0  0  0
H  14.02637825  -10.31722134  -0.806685832  -3  461  0  0  0
H  12.08847825  -8.693421338  -0.083685832  -3  461  0  0  0
H  9.634478249  -6.086021338  3.548614168  -3  462  0  0  0
H  11.36547825  -7.941121338  4.230314168  -3  462  0  0  0
H  10.42577825  -7.863221338  1.776314168  -3  462  0  0  0
H  12.17127825  -8.622821338  8.622114168  -3  463  0  0  0
H  12.08847825  -9.564921338  6.168114168  -3  463  0  0  0
H  13.94847825  -10.39512134  7.830914168  -3  463  0  0  0
H  10.31617825  -1.854921338  -11.36758583  -3  464  0  0  0
H  12.25407825  -3.478721338  -12.09058583  -3  464  0  0  0
H  10.39407825  -4.308921338  -10.42788583  -3  464  0  0  0
H  9.634478249  0.000178662  -9.636585832  -3  465  0  0  0
H  11.36547825  1.855278662  -10.31828583  -3  465  0  0  0
H  9.634478249  6.086378662  -8.623885832  -3  466  0  0  0
H  10.42577825  4.309278662  -10.39618583  -3  466  0  0  0
H  34.73907825  1.745678662  7.862514168  -3  467  0  0  0
H  36.51627825  -3.549321338  3.548614168  -3  468  0  0  0
H  36.59907825  -2.607121338  6.002614168  -3  468  0  0  0
H  35.71047825  -7.941121338  4.230314168  -3  469  0  0  0
H  36.43347825  -6.003321338  2.606414168  -3  469  0  0  0
H  34.77077825  -7.863221338  1.776314168  -3  469  0  0  0
H  33.97957825  -8.622821338  6.085314168  -3  470  0  0  0
H  34.66117825  -6.891921338  7.940414168  -3  470  0  0  0
H  33.97957825  2.536978662  12.17161417  -3  471  0  0  0
H  34.66117825  0.805978662  10.31651417  -3  471  0  0  0
H  33.03737825  0.082978662  12.25441417  -3  471  0  0  0
H  28.57497825  -5.280221338  14.02671417  -3  472  0  0  0
H  26.12097825  -4.340521338  13.94881417  -3  472  0  0  0
H  30.42997825  -3.549321338  14.70841417  -3  473  0  0  0
H  32.28507825  -4.231021338  12.97741417  -3  473  0  0  0
H  32.20717825  -1.777021338  13.91711417  -3  473  0  0  0
H  30.51277825  -9.564921338  12.08881417  -3  474  0  0  0
H  28.65287825  -10.39512134  10.42611417  -3  474  0  0  0
H  24.34377825  -9.635521338  9.634814168  -3  475  0  0  0
H  26.19887825  -10.31722134  11.36581417  -3  475  0  0  0
H  24.26097825  -8.693421338  12.08881417  -3  475  0  0  0
H  32.96677825  -8.622821338  12.17161417  -3  476  0  0  0
H  33.90897825  -6.168821338  12.25441417  -3  476  0  0  0
H  34.73907825  -7.831621338  10.39441417  -3  476  0  0  0
H  26.19887825  11.36687866  14.02671417  -3  477  0  0  0
H  28.65287825  10.42717866  13.94881417  -3  477  0  0  0
H  24.34377825  9.635878662  14.70841417  -3  478  0  0  0
H  22.48867825  10.31757866  12.97741417  -3  478  0  0  0
H  36.51627825  9.635878662  2.535914168  -3  479  0  0  0
H  36.59907825  8.693778662  0.081914168  -3  479  0  0  0
H  38.37137825  4.231378662  -5.281285832  -3  480  0  0  0
H  38.29347825  1.777378662  -4.341585832  -3  480  0  0  0
H  39.05307825  6.086378662  -3.550385832  -3  481  0  0  0
H  37.32207825  7.941478662  -4.232085832  -3  481  0  0  0
H  38.26177825  7.863578662  -1.778085832  -3  481  0  0  0
H  36.43347825  6.169178662  -9.565985832  -3  482  0  0  0
H  34.77077825  4.309278662  -10.39618583  -3  482  0  0  0
H  33.97957825  0.000178662  -9.636585832  -3  483  0  0  0
H  35.71047825  1.855278662  -10.31828583  -3  483  0  0  0
H  36.43347825  -0.082621338  -8.694485832  -3  483  0  0  0
H  36.51627825  8.623178662  -8.623885832  -3  484  0  0  0
H  36.59907825  9.565278662  -6.169885832  -3  484  0  0  0
H  35.71047825  14.02777866  1.854214168  -3  485  0  0  0
H  36.43347825  12.08987866  3.478014168  -3  485  0  0  0
H  34.77077825  13.94987866  4.308214168  -3  485  0  0  0
H  33.97957825  14.70947866  -0.000885832  -3  486  0  0  0
H  34.66117825  12.97847866  -1.855985832  -3  486  0  0  0
H  30.51277825  15.65157866  -6.004385832  -3  487  0  0  0
H  28.65287825  16.48177866  -4.341585832  -3  487  0  0  0
H  24.34377825  15.72217866  -3.550385832  -3  488  0  0  0
H  26.19887825  16.40387866  -5.281285832  -3  488  0  0  0
H  24.26097825  14.77997866  -6.004385832  -3  488  0  0  0
H  32.96677825  14.70947866  -6.087085832  -3  489  0  0  0
H  34.73907825  13.91817866  -4.309985832  -3  489  0  0  0
H  31.23587825  14.02777866  -7.942185832  -3  490  0  0  0
H  32.17557825  13.94987866  -10.39618583  -3  490  0  0  0
H  26.88057825  9.635878662  -12.17338583  -3  491  0  0  0
H  27.82267825  12.08987866  -12.25618583  -3  491  0  0  0
H  21.80707825  12.17267866  -9.636585832  -3  492  0  0  0
H  23.53797825  14.02777866  -10.31828583  -3  492  0  0  0
H  22.59827825  13.94987866  -7.864285832  -3  492  0  0  0
H  24.26097825  15.65157866  12.08881417  -3  493  0  0  0
H  26.12097825  16.48177866  10.42611417  -3  493  0  0  0
H  30.42997825  15.72217866  9.634814168  -3  494  0  0  0
H  28.57497825  16.40387866  11.36581417  -3  494  0  0  0
H  30.51277825  14.77997866  12.08881417  -3  494  0  0  0
H  19.50377825  8.616478662  4.609614168  -5  82  0  0  0
H  19.50377825  4.610678662  8.615414168  -5  122  0  0  0
H  19.53497825  9.607878662  4.989214168  -5  135  0  0  0
H  13.96627825  6.614778662  -3.246985832  -5  179  0  0  0
H  19.53497825  4.990278662  9.606814168  -5  194  0  0  0
H  20.05247825  12.70117866  3.245214168  -5  211  0  0  0
H  13.96627825  -3.245921338  6.613714168  -5  264  0  0  0
H  11.64277825  4.291478662  -3.246985832  -5  271  0  0  0
H  13.96617825  8.926578662  -5.558685832  -5  273  0  0  0
H  20.05247825  3.246278662  12.70011417  -5  288  0  0  0
H  20.05247825  15.01287866  5.556914168  -5  310  0  0  0
H  19.53497825  13.26877866  8.650114168  -5  311  0  0  0
H  11.64277825  -3.245921338  4.290414168  -5  380  0  0  0
H  13.96617825  -5.557621338  8.925514168  -5  382  0  0  0
H  9.331078249  4.291478662  -5.558685832  -5  388  0  0  0
H  11.64277825  8.926578662  -7.882085832  -5  391  0  0  0
H  20.05247825  5.557978662  15.01181417  -5  412  0  0  0
H  19.53497825  8.651178662  13.26771417  -5  413  0  0  0
H  21.77897825  13.26877866  10.89411417  -5  443  0  0  0
