632

C  17.75176671  5.711675899  1.059691593  -31  0  0  0  0
C  16.88829424  4.904674021  0.324943682  -31  0  0  0  0
C  17.15963804  4.6612953  -1.020826745  -31  0  0  0  0
C  18.28973488  5.216430483  -1.61118374  -31  0  0  0  0
C  18.88814767  6.257802565  0.463583382  -31  0  0  0  0
C  19.1785594  6.013322076  -0.880378357  -31  0  0  0  0
H  15.99841815  4.487986811  0.787610056  -44  0  0  0  0
H  16.47808761  4.060790556  -1.616450852  -44  0  0  0  0
C  19.88811388  2.863326805  0.866642785  -122  0  0  0  0
H  19.54668148  6.882076331  1.060186041  -44  0  0  0  0
C  20.44410208  6.512723079  -1.55579003  -122  0  0  0  0
H  18.48712198  5.044733909  -2.666721756  -44  0  0  0  0
C  21.00221899  7.80719584  -0.960708422  -121  0  0  0  0
H  20.19428109  6.706312544  -2.607189014  -112  0  0  0  0
C  21.50933368  5.40613747  -1.51554581  -121  0  0  0  0
H  20.24014672  8.591211195  -0.912091181  -111  0  0  0  0
H  21.83234251  8.173429069  -1.572360235  -111  0  0  0  0
H  21.39417028  7.648465714  0.050841338  -111  0  0  0  0
H  21.79044981  5.214912666  -0.475137786  -111  0  0  0  0
H  22.41326381  5.701258769  -2.058055284  -111  0  0  0  0
H  21.1322249  4.4729595  -1.951525191  -111  0  0  0  0
C  20.00424935  3.488100454  2.241315034  -121  0  0  0  0
C  18.89380278  1.713098242  0.956751046  -121  0  0  0  0
H  19.58074359  3.587985171  0.1148825  -112  0  0  0  0
H  20.43199031  4.482109703  2.202967578  -111  0  0  0  0
H  18.99111489  3.569342631  2.642782246  -111  0  0  0  0
H  20.57868748  2.846974098  2.917260933  -111  0  0  0  0
H  19.13555687  1.043178492  1.787148828  -111  0  0  0  0
H  17.93139971  2.184660753  1.17588318  -111  0  0  0  0
H  18.75642559  1.132541885  0.048064503  -111  0  0  0  0
H  17.54289629  5.923008545  2.104682744  0  33  0  0  0
Al  23.00048948  3.080950232  0.867879218  -2  35  33  36  34
O  21.28137057  2.421759908  0.339738013  -1  41  32  31  0
O  23.61158425  1.751157811  1.787174346  -1  32  45  0  0
O  24.01400118  3.42297552  -0.457091515  -1  37  32  0  0
O  22.56997758  4.477529322  1.733723795  -1  32  49  0  0
Si  25.24403502  3.041390246  -1.405094277  -2  38  54  53  35
O  24.62602076  2.561300167  -2.862399733  -1  39  37  0  0
Si  23.54661602  1.375816954  -3.102878488  -2  63  62  38  40
O  22.64194287  1.123554703  -1.715458781  -1  39  41  0  0
Si  21.2613021  1.253667268  -0.881840579  -2  40  50  33  42
O  20.90736021  -0.136238887  -0.134671182  -1  41  43  0  0
Si  21.2939253  -0.922815153  1.267225453  -2  42  64  65  44
O  21.73402502  0.025386176  2.515797987  -1  43  45  0  0
Si  23.06648035  0.877023619  3.012404046  -2  34  44  52  46
O  22.56102302  1.771133557  4.295117049  -1  45  47  0  0
Si  23.05159453  3.046987823  5.204171668  -2  48  46  72  73
O  23.58129316  4.271403745  4.26113775  -1  49  47  0  0
Si  23.05957755  5.24934851  3.043189591  -2  36  56  55  48
O  20.06928276  1.77780949  -1.835815846  -1  51  41  0  0
Si  19.12709389  1.290895237  -3.076140532  -2  67  66  68  50
O  24.25767245  -0.079332804  3.48035039  -1  45  57  0  0
O  26.19557245  1.858567197  -0.80434961  -1  58  37  0  0
O  26.11767245  4.312567197  -1.74404961  -1  59  37  0  0
O  21.80377245  6.089667197  3.55095039  -1  49  60  0  0
O  24.25767245  6.172467197  2.60875039  -1  61  49  0  0
Si  25.22667245  -1.289232804  3.04705039  -23  70  69  52  71
Si  27.38607245  0.889667197  -1.29124961  -23  74  76  53  75
Si  27.38117245  5.203567197  -1.29124961  -23  77  54  78  79
Si  21.29487245  6.975867197  4.79495039  -23  55  82  80  81
Si  25.22667245  7.382467197  3.04215039  -23  85  56  83  84
O  24.42327245  0.086267197  -3.47744961  -1  86  39  0  0
O  22.56327245  1.748967197  -4.30764961  -1  87  39  0  0
O  22.48537245  -1.851632804  0.80725039  -1  88  43  0  0
O  20.03137245  -1.773732804  1.74695039  -1  89  43  0  0
O  18.25417245  2.540267197  -3.54804961  -1  90  51  0  0
O  20.10927245  0.809267197  -4.22974961  -1  87  51  0  0
O  18.17147245  0.086267197  -2.60584961  -1  51  91  0  0
O  24.34047245  -2.533332804  2.53825039  -1  88  57  0  0
O  26.19557245  -0.802332804  1.85655039  -1  92  57  0  0
O  26.11767245  -1.742032804  4.31055039  -1  57  93  0  0
O  21.80377245  3.552967197  6.08765039  -1  47  94  0  0
O  24.25767245  2.610767197  6.17045039  -1  47  95  0  0
O  26.87727245  0.003467197  -2.53534961  -1  86  58  0  0
O  27.81937245  -0.079332804  -0.08134961  -1  58  92  0  0
O  28.64957245  1.780667197  -1.74404961  -1  58  96  0  0
O  27.88997245  6.089667197  -2.53534961  -1  97  59  0  0
O  28.57167245  4.234667197  -0.80434961  -1  59  96  0  0
O  26.94777245  6.172467197  -0.08134961  -1  59  98  0  0
O  22.48537245  7.944767197  5.28185039  -1  99  60  0  0
O  20.86157245  6.006967197  6.00495039  -1  60  94  0  0
O  20.03137245  7.866867197  4.34215039  -1  614  60  0  0
O  24.34047245  8.626467197  3.55095039  -1  61  99  0  0
O  26.19557245  6.895567197  4.23265039  -1  61  100  0  0
O  26.11767245  7.835267197  1.77865039  -1  98  61  0  0
Si  25.63317245  -0.882732804  -3.04414961  -23  102  62  74  101
Si  21.29977245  1.296167197  -5.19864961  -22  104  103  63  67
Si  23.45427245  -3.042132804  1.29415039  -23  105  64  106  69
Si  19.14037245  -3.037232804  1.29415039  -23  109  108  65  107
Si  17.36807245  3.049067197  -4.79204961  -23  111  110  112  66
Si  16.96147245  -0.882732804  -3.03924961  -23  114  113  68  115
Si  27.38607245  -1.289232804  0.88765039  -2  75  116  117  70
Si  27.38117245  -1.289232804  5.20155039  -2  119  71  118  120
Si  21.29487245  4.796967197  6.97385039  -23  81  72  122  121
Si  25.22667245  3.044167197  7.38045039  -23  73  124  125  123
Si  29.54057245  3.044167197  -1.29124961  -2  126  76  78  127
Si  29.13397245  6.975867197  -3.04414961  -2  130  129  77  128
Si  27.38117245  7.382467197  0.88765039  -2  79  131  85  132
Si  23.45427245  9.135267197  4.79495039  -2  83  134  80  133
Si  27.38607245  7.382467197  5.20155039  -2  84  138  136  137
O  25.14627245  -1.851632804  -1.85364961  -1  86  139  0  0
O  26.08597245  -1.773732804  -4.30764961  -1  140  86  0  0
O  20.79097245  2.540267197  -6.08474961  -1  141  87  0  0
O  21.73307245  0.086267197  -6.16754961  -1  142  87  0  0
O  24.42327245  -3.475432804  0.08425039  -1  139  88  0  0
O  22.56327245  -4.305632804  1.74695039  -1  88  143  0  0
O  18.25417245  -3.546032804  2.53825039  -1  89  144  0  0
O  20.10927245  -4.227732804  0.80725039  -1  89  143  0  0
O  18.17147245  -2.603832804  0.08425039  -1  145  89  0  0
O  16.39917245  1.858567197  -5.27894961  -1  90  146  0  0
O  18.33697245  3.482367197  -6.00204961  -1  141  90  0  0
O  16.47707245  4.312567197  -4.33924961  -1  90  147  0  0
O  15.71747245  0.003467197  -3.54804961  -1  146  91  0  0
O  17.44837245  -1.851632804  -4.22974961  -1  148  91  0  0
O  16.50867245  -1.773732804  -1.77574961  -1  91  145  0  0
O  26.87727245  -2.533332804  0.00145039  -1  139  92  0  0
O  28.64957245  -1.742032804  1.77865039  -1  92  149  0  0
O  27.88997245  -2.533332804  6.08765039  -1  93  150  0  0
O  28.57167245  -0.802332804  4.23265039  -1  149  93  0  0
O  26.94777245  -0.079332804  6.17045039  -1  93  151  0  0
O  22.48537245  5.283867197  7.94275039  -1  94  152  0  0
O  20.03137245  4.344167197  7.86485039  -1  94  615  0  0
O  24.34047245  3.552967197  8.62445039  -1  95  152  0  0
O  26.19557245  4.234667197  6.89355039  -1  153  95  0  0
O  26.11767245  1.780667197  7.83325039  -1  95  151  0  0
O  30.42667245  3.552967197  -2.53534961  -1  154  96  0  0
O  30.50947245  2.610767197  -0.08134961  -1  96  155  0  0
O  29.62087245  7.944767197  -1.85364961  -1  97  156  0  0
O  30.34397245  6.006967197  -3.47744961  -1  154  97  0  0
O  28.68117245  7.866867197  -4.30764961  -1  157  97  0  0
O  27.88997245  8.626467197  0.00145039  -1  156  98  0  0
O  28.57167245  6.895567197  1.85655039  -1  98  158  0  0
O  24.42327245  9.568567197  6.00495039  -1  99  159  0  0
O  22.56327245  10.39876719  4.34215039  -1  160  99  0  0
O  20.10927245  10.32086719  5.28185039  -1  160  616  0  0
O  26.87727245  8.626467197  6.08765039  -1  100  159  0  0
O  27.81937245  6.172467197  6.17045039  -1  100  153  0  0
O  28.64957245  7.835267197  4.31055039  -1  158  100  0  0
Si  25.63317245  -3.042132804  -0.88474961  -2  101  161  116  105
Si  25.63317245  -3.037232804  -5.19864961  -2  164  162  102  163
Si  19.54697245  3.049067197  -6.97094961  -2  165  166  103  111
Si  21.29977245  -0.882732804  -7.37754961  -2  167  169  168  104
Si  21.29977245  -5.196632804  1.29415039  -2  171  108  106  170
Si  17.36807245  -4.790032804  3.04705039  -2  172  107  173  174
Si  16.96147245  -3.037232804  -0.88474961  -2  176  115  175  109
Si  15.20867245  0.889667197  -4.79204961  -2  177  110  178  113
Si  15.21357245  5.203567197  -4.79204961  -2  181  180  112  179
Si  16.96147245  -3.042132804  -5.19864961  -2  183  182  184  114
Si  29.54057245  -1.289232804  3.04215039  -2  117  186  185  119
Si  29.13397245  -3.042132804  6.97385039  -2  188  118  189  187
Si  27.38117245  0.889667197  7.38045039  -2  120  191  125  190
Si  23.45427245  4.796967197  9.13325039  -2  121  123  192  193
Si  27.38607245  5.203567197  7.38045039  -2  137  124  196  195
Si  31.31287245  4.796967197  -3.04414961  -2  198  129  126  197
Si  31.71947245  3.044167197  0.88765039  -2  127  199  201  200
Si  29.13397245  9.135267197  -0.88474961  -2  128  203  131  202
Si  29.13397245  9.130367197  -5.19864961  -2  206  204  130  205
Si  29.54057245  7.382467197  3.04705039  -2  132  207  208  138
Si  25.63317245  9.135267197  6.97385039  -2  133  136  210  209
Si  21.29977245  11.28976719  4.79495039  -2  211  134  135  212
O  26.08597245  -4.305632804  -1.77574961  -1  213  139  0  0
O  26.87727245  -3.546032804  -6.08474961  -1  214  140  0  0
O  25.14627245  -4.227732804  -4.22974961  -1  140  213  0  0
O  24.42327245  -2.603832804  -6.16754961  -1  215  140  0  0
O  19.06007245  1.858567197  -7.93984961  -1  216  141  0  0
O  19.99977245  4.312567197  -7.86194961  -1  217  141  0  0
O  20.79097245  0.003467197  -8.62154961  -1  216  142  0  0
O  20.10927245  -1.851632804  -6.89064961  -1  142  218  0  0
O  22.56327245  -1.773732804  -7.83034961  -1  215  142  0  0
O  20.79097245  -6.082732804  2.53825039  -1  143  219  0  0
O  21.73307245  -6.165532804  0.08425039  -1  220  143  0  0
O  16.39917245  -5.276932804  1.85655039  -1  221  144  0  0
O  18.33697245  -6.000032804  3.48035039  -1  144  219  0  0
O  16.47707245  -4.337232804  4.31055039  -1  144  222  0  0
O  15.71747245  -3.546032804  0.00145039  -1  145  221  0  0
O  17.44837245  -4.227732804  -1.85364961  -1  223  145  0  0
O  14.77527245  -0.079332804  -6.00204961  -1  224  146  0  0
O  13.94517245  1.780667197  -4.33924961  -1  146  225  0  0
O  14.70477245  6.089667197  -3.54804961  -1  147  617  0  0
O  14.02307245  4.234667197  -5.27894961  -1  225  147  0  0
O  15.64687245  6.172467197  -6.00204961  -1  226  147  0  0
O  15.71747245  -2.533332804  -6.08474961  -1  224  148  0  0
O  18.17147245  -3.475432804  -6.16754961  -1  218  148  0  0
O  16.50867245  -4.305632804  -4.30764961  -1  148  223  0  0
O  30.42667245  -2.533332804  3.55095039  -1  149  227  0  0
O  30.50947245  -0.079332804  2.60875039  -1  149  228  0  0
O  29.62087245  -1.851632804  7.94275039  -1  150  229  0  0
O  30.34397245  -3.475432804  6.00495039  -1  227  150  0  0
O  28.68117245  -4.305632804  7.86485039  -1  150  230  0  0
O  27.88997245  0.003467197  8.62445039  -1  151  229  0  0
O  28.57167245  1.858567197  6.89355039  -1  231  151  0  0
O  24.42327245  6.006967197  9.56655039  -1  152  232  0  0
O  22.56327245  4.344167197  10.39675039  -1  152  233  0  0
O  20.10927245  5.283867197  10.31885039  -1  618  233  0  0
O  26.87727245  6.089667197  8.62445039  -1  153  232  0  0
O  28.64957245  4.312567197  7.83325039  -1  153  231  0  0
O  32.28177245  5.283867197  -1.85364961  -1  154  234  0  0
O  32.20387245  4.344167197  -4.30764961  -1  235  154  0  0
O  32.96347245  3.552967197  0.00145039  -1  234  155  0  0
O  31.23257245  4.234667197  1.85655039  -1  155  236  0  0
O  32.17227245  1.780667197  1.77865039  -1  155  228  0  0
O  30.34397245  9.568567197  0.08425039  -1  156  237  0  0
O  28.68117245  10.39876719  -1.77574961  -1  238  156  0  0
O  27.88997245  9.639167197  -6.08474961  -1  239  157  0  0
O  29.62087245  10.32086719  -4.22974961  -1  157  238  0  0
O  30.34397245  8.697067197  -6.16754961  -1  240  157  0  0
O  30.42667245  8.626467197  2.53825039  -1  237  158  0  0
O  30.50947245  6.172467197  3.48035039  -1  158  236  0  0
O  25.14627245  7.944767197  7.94275039  -1  159  232  0  0
O  26.08597245  10.39876719  7.86485039  -1  159  241  0  0
O  20.79097245  12.17596719  3.55095039  -1  619  160  0  0
O  21.73307245  12.25876719  6.00495039  -1  160  242  0  0
Si  25.63317245  -5.196632804  -3.03924961  -2  163  243  244  161
Si  27.38607245  -4.790032804  -6.97094961  -2  245  247  162  246
Si  23.45427245  -3.037232804  -7.37754961  -2  248  169  249  164
Si  19.54697245  0.889667197  -9.13034961  -2  251  250  167  165
Si  19.54697245  5.203567197  -9.12544961  -2  253  252  254  166
Si  19.14037245  -3.042132804  -7.37754961  -2  255  256  168  183
Si  19.54697245  -6.968932804  3.04705039  -2  257  170  173  258
Si  21.29977245  -7.375532804  -0.88474961  -2  260  261  259  171
Si  15.20867245  -4.790032804  0.88765039  -2  262  175  263  172
Si  15.21357245  -4.790032804  5.20155039  -2  265  174  264  266
Si  16.96147245  -5.196632804  -3.04414961  -2  184  268  267  176
Si  15.20867245  -1.289232804  -6.97094961  -2  269  270  182  177
Si  13.05417245  3.044167197  -4.79204961  -2  272  180  178  271
Si  15.21357245  7.382467197  -6.97094961  -2  274  275  273  181
Si  31.31287245  -3.042132804  4.79495039  -2  185  277  276  188
Si  31.71947245  0.889667197  3.04215039  -2  201  186  278  279
Si  29.13397245  -0.882732804  9.13325039  -2  187  190  280  281
Si  29.13397245  -5.196632804  9.12835039  -2  189  284  282  283
Si  29.54057245  3.049067197  7.38045039  -2  286  191  196  285
Si  25.63317245  6.975867197  9.13325039  -2  209  195  192  287
Si  21.29977245  4.796967197  11.28775039  -2  194  193  288  289
Si  33.47227245  4.796967197  -0.88474961  -2  197  291  199  290
Si  33.46737245  4.796967197  -5.19864961  -2  294  292  198  293
Si  31.71947245  5.203567197  3.04705039  -2  200  295  208  296
Si  31.31287245  9.135267197  1.29415039  -2  202  297  298  207
Si  29.13397245  11.28976719  -3.03924961  -2  205  299  300  203
Si  27.38117245  10.88326719  -6.97094961  -2  301  303  204  302
Si  31.31287245  9.130367197  -7.37754961  -2  304  306  305  206
Si  25.63317245  11.28976719  9.12835039  -2  210  309  307  308
Si  21.29977245  13.46866719  6.97385039  -2  212  310  312  311
O  26.87727245  -6.082732804  -3.54804961  -1  313  213  0  0
O  24.42327245  -6.165532804  -2.60584961  -1  314  213  0  0
O  26.19557245  -5.276932804  -7.93984961  -1  315  214  0  0
O  27.81937245  -6.000032804  -6.00204961  -1  214  313  0  0
O  28.64957245  -4.337232804  -7.86194961  -1  316  214  0  0
O  24.34047245  -3.546032804  -8.62154961  -1  315  215  0  0
O  22.48537245  -4.227732804  -6.89064961  -1  215  317  0  0
O  18.33697245  -0.079332804  -9.56364961  -1  216  318  0  0
O  19.99977245  1.780667197  -10.39384961  -1  319  216  0  0
O  20.79097245  6.089667197  -9.63424961  -1  320  217  0  0
O  19.06007245  4.234667197  -10.31594961  -1  319  217  0  0
O  18.33697245  6.172467197  -8.69214961  -1  321  217  0  0
O  18.25417245  -2.533332804  -8.62154961  -1  318  218  0  0
O  20.03137245  -4.305632804  -7.83034961  -1  317  218  0  0
O  19.06007245  -7.937832804  1.85655039  -1  322  219  0  0
O  19.99977245  -7.859932804  4.31055039  -1  219  323  0  0
O  20.79097245  -8.619532804  0.00145039  -1  220  322  0  0
O  20.10927245  -6.888632804  -1.85364961  -1  324  220  0  0
O  22.56327245  -7.828332804  -1.77574961  -1  314  220  0  0
O  14.77527245  -6.000032804  -0.08134961  -1  325  221  0  0
O  13.94517245  -4.337232804  1.77865039  -1  221  326  0  0
O  14.70477245  -3.546032804  6.08765039  -1  222  620  0  0
O  14.02307245  -5.276932804  4.23265039  -1  326  222  0  0
O  15.64687245  -6.000032804  6.17045039  -1  222  327  0  0
O  15.71747245  -6.082732804  -2.53534961  -1  223  325  0  0
O  18.17147245  -6.165532804  -3.47744961  -1  223  324  0  0
O  16.39917245  -0.802332804  -7.93984961  -1  318  224  0  0
O  13.94517245  -1.742032804  -7.86194961  -1  328  224  0  0
O  12.16797245  3.552967197  -3.54804961  -1  225  621  0  0
O  12.08517245  2.610767197  -6.00204961  -1  329  225  0  0
O  14.70477245  8.626467197  -6.08474961  -1  226  622  0  0
O  14.02307245  6.895567197  -7.93984961  -1  330  226  0  0
O  16.47707245  7.835267197  -7.86194961  -1  321  226  0  0
O  32.28177245  -1.851632804  5.28185039  -1  331  227  0  0
O  32.20387245  -4.305632804  4.34215039  -1  332  227  0  0
O  32.96347245  0.003467197  3.55095039  -1  228  331  0  0
O  31.23257245  1.858567197  4.23265039  -1  228  333  0  0
O  30.34397245  0.086267197  9.56655039  -1  229  334  0  0
O  28.68117245  -1.773732804  10.39675039  -1  229  335  0  0
O  27.88997245  -6.082732804  9.63715039  -1  230  336  0  0
O  29.62087245  -4.227732804  10.31885039  -1  230  335  0  0
O  30.34397245  -6.165532804  8.69505039  -1  230  337  0  0
O  30.42667245  2.540267197  8.62445039  -1  231  334  0  0
O  30.50947245  3.482367197  6.17045039  -1  333  231  0  0
O  26.08597245  7.866867197  10.39675039  -1  232  338  0  0
O  20.79097245  3.552967197  12.17395039  -1  233  623  0  0
O  21.73307245  6.006967197  12.25675039  -1  233  339  0  0
O  33.90567245  6.006967197  0.08425039  -1  234  340  0  0
O  34.73577245  4.344167197  -1.77574961  -1  341  234  0  0
O  33.97627245  3.552967197  -6.08474961  -1  342  235  0  0
O  34.65787245  5.283867197  -4.22974961  -1  235  341  0  0
O  33.03407245  6.006967197  -6.16754961  -1  343  235  0  0
O  32.96347245  6.089667197  2.53825039  -1  340  236  0  0
O  32.17227245  4.312567197  4.31055039  -1  236  333  0  0
O  32.28177245  7.944767197  0.80725039  -1  237  340  0  0
O  32.20387245  10.39876719  1.74695039  -1  237  344  0  0
O  27.88997245  12.17596719  -3.54804961  -1  345  238  0  0
O  30.34397245  12.25876719  -2.60584961  -1  238  346  0  0
O  28.57167245  11.37016719  -7.93984961  -1  347  239  0  0
O  26.94777245  12.09316719  -6.00204961  -1  239  345  0  0
O  26.11767245  10.43046719  -7.86194961  -1  348  239  0  0
O  30.42667245  9.639167197  -8.62154961  -1  347  240  0  0
O  32.28177245  10.32086719  -6.89064961  -1  349  240  0  0
O  32.20387245  7.866867197  -7.83034961  -1  343  240  0  0
O  26.87727245  12.17596719  9.63715039  -1  241  350  0  0
O  25.14627245  10.32086719  10.31885039  -1  241  338  0  0
O  24.42327245  12.25876719  8.69505039  -1  351  241  0  0
O  20.79097245  14.71276719  6.08765039  -1  624  242  0  0
O  20.10927245  12.98176719  7.94275039  -1  242  625  0  0
O  22.56327245  13.92146719  7.86485039  -1  242  351  0  0
Si  27.38607245  -6.968932804  -4.79204961  -2  246  352  353  243
Si  23.45427245  -7.375532804  -3.03924961  -2  355  354  244  261
Si  25.22667245  -4.790032804  -9.13034961  -2  357  356  248  245
Si  29.54057245  -4.790032804  -9.12544961  -2  359  358  360  247
Si  21.29487245  -5.196632804  -7.37754961  -2  361  256  249  362
Si  17.36807245  -1.289232804  -9.13034961  -2  363  250  255  269
Si  19.54697245  3.044167197  -11.28484961  -2  365  364  251  253
Si  21.29977245  6.975867197  -10.87834961  -2  367  366  368  252
Si  17.36807245  7.382467197  -9.12544961  -2  370  369  254  275
Si  19.54697245  -9.128332804  0.88765039  -2  371  259  372  257
Si  19.54697245  -9.123432804  5.20155039  -2  374  258  373  375
Si  19.14037245  -7.375532804  -3.04414961  -2  377  268  376  260
Si  15.20867245  -6.968932804  -1.29124961  -2  267  379  378  262
Si  13.05417245  -4.790032804  3.04215039  -2  263  381  380  265
Si  15.21357245  -6.968932804  7.38045039  -2  266  383  384  382
Si  13.05417245  -1.289232804  -9.12544961  -2  386  385  387  270
Si  10.87527245  3.044167197  -6.97094961  -2  389  390  388  272
Si  13.05417245  7.382467197  -9.13034961  -2  393  392  391  274
Si  33.47227245  -0.882732804  4.79495039  -2  278  395  276  394
Si  33.46737245  -5.196632804  4.79495039  -2  396  277  397  398
Si  31.71947245  3.049067197  5.20155039  -2  279  296  399  286
Si  31.31287245  1.296167197  9.13325039  -2  400  285  280  401
Si  29.13397245  -3.037232804  11.28775039  -2  283  281  402  403
Si  27.38117245  -6.968932804  10.88125039  -2  282  406  404  405
Si  31.31287245  -7.375532804  9.12835039  -2  409  284  407  408
Si  25.63317245  9.130367197  11.28775039  -2  308  287  410  411
Si  21.29977245  6.975867197  13.46665039  -2  289  413  414  412
Si  33.47227245  6.975867197  1.29415039  -2  290  297  415  295
Si  35.62677245  4.796967197  -3.03924961  -2  293  416  417  291
Si  35.22027245  3.044167197  -6.97094961  -2  418  420  292  419
Si  33.46737245  6.975867197  -7.37754961  -2  421  306  422  294
Si  33.46737245  11.28976719  1.29415039  -2  425  424  298  423
Si  27.38117245  13.06216719  -4.79204961  -2  302  426  427  299
Si  31.31287245  13.46866719  -3.03924961  -2  429  428  300  430
Si  29.54057245  10.88326719  -9.13034961  -2  432  431  304  301
Si  25.22667245  10.88326719  -9.12544961  -2  434  433  435  303
Si  33.47227245  11.28976719  -7.37754961  -2  436  438  305  437
Si  27.38607245  13.06216719  10.88125039  -2  307  441  439  440
Si  23.45427245  13.46866719  9.12835039  -2  312  309  442  443
O  26.19557245  -7.937832804  -5.27894961  -1  444  313  0  0
O  28.64957245  -7.859932804  -4.33924961  -1  445  313  0  0
O  24.34047245  -8.619532804  -3.54804961  -1  444  314  0  0
O  22.48537245  -6.888632804  -4.22974961  -1  446  314  0  0
O  24.25767245  -6.000032804  -9.56364961  -1  315  447  0  0
O  26.11767245  -4.337232804  -10.39384961  -1  448  315  0  0
O  30.42667245  -3.546032804  -9.63424961  -1  449  316  0  0
O  28.57167245  -5.276932804  -10.31594961  -1  448  316  0  0
O  30.50947245  -6.000032804  -8.69214961  -1  450  316  0  0
O  21.80377245  -6.082732804  -8.62154961  -1  447  317  0  0
O  20.86157245  -6.165532804  -6.16754961  -1  317  446  0  0
O  16.47707245  -1.742032804  -10.39384961  -1  451  318  0  0
O  20.79097245  3.552967197  -12.17104961  -1  452  319  0  0
O  18.33697245  2.610767197  -12.25384961  -1  453  319  0  0
O  20.10927245  7.944767197  -11.36524961  -1  320  454  0  0
O  21.73307245  6.006967197  -12.08824961  -1  452  320  0  0
O  22.56327245  7.866867197  -10.42554961  -1  320  455  0  0
O  18.25417245  8.626467197  -9.63424961  -1  454  321  0  0
O  16.39917245  6.895567197  -10.31594961  -1  456  321  0  0
O  18.33697245  -9.561632804  -0.08134961  -1  457  322  0  0
O  19.99977245  -10.39183281  1.77865039  -1  322  458  0  0
O  20.79097245  -9.632232804  6.08765039  -1  323  459  0  0
O  19.06007245  -10.31393281  4.23265039  -1  458  323  0  0
O  18.33697245  -8.690132804  6.17045039  -1  323  460  0  0
O  18.25417245  -8.619532804  -2.53534961  -1  324  457  0  0
O  20.03137245  -7.828332804  -4.30764961  -1  446  324  0  0
O  16.39917245  -7.937832804  -0.80434961  -1  457  325  0  0
O  13.94517245  -7.859932804  -1.74404961  -1  325  461  0  0
O  12.16797245  -3.546032804  3.55095039  -1  326  626  0  0
O  12.08517245  -6.000032804  2.60875039  -1  326  462  0  0
O  14.70477245  -6.082732804  8.62445039  -1  327  627  0  0
O  14.02307245  -7.937832804  6.89355039  -1  327  463  0  0
O  16.47707245  -7.859932804  7.83325039  -1  460  327  0  0
O  12.16797245  -2.533332804  -9.63424961  -1  464  328  0  0
O  14.02307245  -0.802332804  -10.31594961  -1  451  328  0  0
O  12.08517245  -0.079332804  -8.69214961  -1  465  328  0  0
O  9.631172447  3.552967197  -6.08474961  -1  329  628  0  0
O  11.36217245  4.234667197  -7.93984961  -1  466  329  0  0
O  10.42247245  1.780667197  -7.86194961  -1  465  329  0  0
O  12.16797245  8.626467197  -8.62154961  -1  330  629  0  0
O  12.08517245  6.172467197  -9.56364961  -1  330  466  0  0
O  13.94517245  7.835267197  -10.39384961  -1  456  330  0  0
O  33.90567245  0.086267197  6.00495039  -1  331  467  0  0
O  34.73577245  -1.773732804  4.34215039  -1  468  331  0  0
O  33.97627245  -6.082732804  3.55095039  -1  469  332  0  0
O  34.65787245  -4.227732804  5.28185039  -1  468  332  0  0
O  33.03407245  -6.165532804  6.00495039  -1  332  470  0  0
O  32.96347245  2.540267197  6.08765039  -1  333  467  0  0
O  32.28177245  0.809267197  7.94275039  -1  467  334  0  0
O  32.20387245  1.748967197  10.39675039  -1  334  471  0  0
O  27.88997245  -3.546032804  12.17395039  -1  335  472  0  0
O  30.34397245  -2.603832804  12.25675039  -1  335  473  0  0
O  28.57167245  -7.937832804  11.36815039  -1  336  474  0  0
O  26.94777245  -6.000032804  12.09115039  -1  336  472  0  0
O  26.11767245  -7.859932804  10.42845039  -1  336  475  0  0
O  30.42667245  -8.619532804  9.63715039  -1  337  474  0  0
O  32.28177245  -6.888632804  10.31885039  -1  337  476  0  0
O  32.20387245  -7.828332804  7.86485039  -1  470  337  0  0
O  26.87727245  9.639167197  12.17395039  -1  338  477  0  0
O  24.42327245  8.697067197  12.25675039  -1  338  478  0  0
O  20.79097245  6.089667197  14.71075039  -1  339  630  0  0
O  20.10927245  7.944767197  12.97975039  -1  631  339  0  0
O  22.56327245  7.866867197  13.91945039  -1  478  339  0  0
O  34.73577245  7.866867197  1.74695039  -1  479  340  0  0
O  36.51297245  3.552967197  -3.54804961  -1  480  341  0  0
O  36.59577245  6.006967197  -2.60584961  -1  481  341  0  0
O  35.70717245  4.234667197  -7.93984961  -1  482  342  0  0
O  36.43017245  2.610767197  -6.00204961  -1  342  480  0  0
O  34.76747245  1.780667197  -7.86194961  -1  483  342  0  0
O  33.97627245  6.089667197  -8.62154961  -1  482  343  0  0
O  34.65787245  7.944767197  -6.89064961  -1  484  343  0  0
O  33.97627245  12.17596719  2.53825039  -1  344  485  0  0
O  34.65787245  10.32086719  0.80725039  -1  479  344  0  0
O  33.03407245  12.25876719  0.08425039  -1  486  344  0  0
O  28.57167245  14.03106719  -5.27894961  -1  345  487  0  0
O  26.11767245  13.95316719  -4.33924961  -1  345  488  0  0
O  30.42667245  14.71276719  -3.54804961  -1  487  346  0  0
O  32.28177245  12.98176719  -4.22974961  -1  489  346  0  0
O  32.20387245  13.92146719  -1.77574961  -1  346  486  0  0
O  30.50947245  12.09316719  -9.56364961  -1  347  490  0  0
O  28.64957245  10.43046719  -10.39384961  -1  491  347  0  0
O  24.34047245  9.639167197  -9.63424961  -1  455  348  0  0
O  26.19557245  11.37016719  -10.31594961  -1  491  348  0  0
O  24.25767245  12.09316719  -8.69214961  -1  348  492  0  0
O  32.96347245  12.17596719  -8.62154961  -1  490  349  0  0
O  33.90567245  12.25876719  -6.16754961  -1  349  489  0  0
O  34.73577245  10.39876719  -7.83034961  -1  484  349  0  0
O  26.19557245  14.03106719  11.36815039  -1  350  493  0  0
O  27.81937245  12.09316719  12.09115039  -1  350  477  0  0
O  28.64957245  13.95316719  10.42845039  -1  350  494  0  0
O  24.34047245  14.71276719  9.63715039  -1  351  493  0  0
O  22.48537245  12.98176719  10.31885039  -1  351  632  0  0
Si  25.22667245  -9.128332804  -4.79204961  -2  495  352  496  354
Si  29.54057245  -9.123432804  -4.79204961  -2  499  498  353  497
Si  21.29487245  -7.375532804  -5.19864961  -2  362  500  377  355
Si  23.04777245  -6.968932804  -9.13034961  -2  502  356  361  501
Si  27.38117245  -4.790032804  -11.28484961  -2  504  503  357  359
Si  31.31287245  -3.037232804  -10.87834961  -2  506  505  507  358
Si  31.71947245  -6.968932804  -9.12544961  -2  509  508  360  510
Si  15.21357245  -1.289232804  -11.28484961  -2  512  511  363  386
Si  21.29977245  4.796967197  -13.05724961  -2  513  514  364  367
Si  17.36807245  3.044167197  -13.46374961  -2  515  517  516  365
Si  19.14037245  9.135267197  -10.87834961  -2  518  366  519  369
Si  23.45427245  9.130367197  -10.87834961  -2  521  520  368  433
Si  15.20867245  7.382467197  -11.28484961  -2  523  522  393  370
Si  17.36807245  -9.128332804  -1.29124961  -2  376  524  378  371
Si  19.54697245  -11.28283281  3.04215039  -2  372  526  525  374
Si  21.29977245  -10.87633281  6.97385039  -2  528  373  529  527
Si  17.36807245  -9.123432804  7.38045039  -2  375  531  384  530
Si  13.05417245  -9.123432804  -1.29124961  -2  532  379  533  534
Si  10.87527245  -6.968932804  3.04215039  -2  537  381  535  536
Si  13.05417245  -9.128332804  7.38045039  -2  539  383  540  538
Si  11.28177245  -3.042132804  -10.87834961  -2  542  541  543  385
Si  10.87527245  0.889667197  -9.12544961  -2  545  544  387  390
Si  10.87527245  5.203567197  -9.13034961  -2  547  392  546  389
Si  33.47227245  1.296167197  6.97385039  -2  394  399  548  400
Si  35.62677245  -3.037232804  4.79495039  -2  549  395  397  550
Si  35.22027245  -6.968932804  3.04215039  -2  553  552  396  551
Si  33.46737245  -7.375532804  6.97385039  -2  398  554  409  555
Si  33.46737245  1.296167197  11.28775039  -2  557  401  556  558
Si  27.38117245  -4.790032804  13.06015039  -2  405  402  560  559
Si  31.31287245  -3.037232804  13.46665039  -2  403  562  563  561
Si  29.54057245  -9.128332804  10.88125039  -2  407  565  404  564
Si  25.22667245  -9.123432804  10.88125039  -2  566  406  567  568
Si  33.47227245  -7.375532804  11.28775039  -2  408  571  569  570
Si  27.38607245  10.88326719  13.06015039  -2  440  410  573  572
Si  23.45427245  9.130367197  13.46665039  -2  411  575  414  574
Si  35.62677245  9.130367197  1.29415039  -2  577  424  415  576
Si  37.39917245  3.044167197  -4.79204961  -2  419  578  579  416
Si  37.80567245  6.975867197  -3.03924961  -2  581  580  417  582
Si  35.22027245  5.203567197  -9.13034961  -2  584  583  421  418
Si  35.22027245  0.889667197  -9.12544961  -2  586  585  587  420
Si  35.62677245  9.135267197  -7.37754961  -2  588  438  422  589
Si  35.22027245  13.06216719  3.04705039  -2  590  423  591  592
Si  33.46737245  13.46866719  -0.88474961  -2  594  430  593  425
Si  29.54057245  15.22156719  -4.79204961  -2  595  426  596  428
Si  25.22667245  15.21666719  -4.79204961  -2  599  598  427  597
Si  33.47227245  13.46866719  -5.19864961  -2  437  600  601  429
Si  31.71947245  13.06216719  -9.13034961  -2  603  431  436  602
Si  27.38607245  10.88326719  -11.28484961  -2  605  604  432  434
Si  23.04777245  13.06216719  -9.12544961  -2  607  606  435  608
Si  25.22667245  15.22156719  10.88125039  -2  442  610  439  609
Si  29.54057245  15.21666719  10.88125039  -2  611  441  612  613
H  24.25767245  -9.561632804  -6.00204961  -3  444  0  0  0
H  26.11767245  -10.39183281  -4.33924961  -3  444  0  0  0
H  30.42667245  -9.632232804  -3.54804961  -3  445  0  0  0
H  28.57167245  -10.31393281  -5.27894961  -3  445  0  0  0
H  30.50947245  -8.690132804  -6.00204961  -3  445  0  0  0
H  21.80377245  -8.619532804  -6.08474961  -3  446  0  0  0
H  23.53467245  -7.937832804  -7.93984961  -3  447  0  0  0
H  22.59497245  -7.859932804  -10.39384961  -3  447  0  0  0
H  27.88997245  -3.546032804  -12.17104961  -3  448  0  0  0
H  26.94777245  -6.000032804  -12.25384961  -3  448  0  0  0
H  32.28177245  -4.227732804  -11.36524961  -3  449  0  0  0
H  30.34397245  -2.603832804  -12.08824961  -3  449  0  0  0
H  32.20387245  -1.773732804  -10.42554961  -3  449  0  0  0
H  32.96347245  -6.082732804  -9.63424961  -3  450  0  0  0
H  31.23257245  -7.937832804  -10.31594961  -3  450  0  0  0
H  32.17227245  -7.859932804  -7.86194961  -3  450  0  0  0
H  14.70477245  -2.533332804  -12.17104961  -3  451  0  0  0
H  15.64687245  -0.079332804  -12.25384961  -3  451  0  0  0
H  20.10927245  5.283867197  -14.02614961  -3  452  0  0  0
H  22.56327245  4.344167197  -13.94824961  -3  452  0  0  0
H  18.25417245  3.552967197  -14.70784961  -3  453  0  0  0
H  16.39917245  4.234667197  -12.97684961  -3  453  0  0  0
H  16.47707245  1.780667197  -13.91654961  -3  453  0  0  0
H  18.17147245  9.568567197  -12.08824961  -3  454  0  0  0
H  20.03137245  10.39876719  -10.42554961  -3  454  0  0  0
H  22.48537245  10.32086719  -11.36524961  -3  455  0  0  0
H  24.42327245  8.697067197  -12.08824961  -3  455  0  0  0
H  15.71747245  8.626467197  -12.17104961  -3  456  0  0  0
H  14.77527245  6.172467197  -12.25384961  -3  456  0  0  0
H  16.47707245  -10.39183281  -1.74404961  -3  457  0  0  0
H  20.79097245  -12.16903281  3.55095039  -3  458  0  0  0
H  18.33697245  -12.25183281  2.60875039  -3  458  0  0  0
H  20.10927245  -11.36323281  7.94275039  -3  459  0  0  0
H  21.73307245  -12.08623281  6.00495039  -3  459  0  0  0
H  22.56327245  -10.42353281  7.86485039  -3  459  0  0  0
H  18.25417245  -9.632232804  8.62445039  -3  460  0  0  0
H  16.39917245  -10.31393281  6.89355039  -3  460  0  0  0
H  12.16797245  -9.632232804  -2.53534961  -3  461  0  0  0
H  14.02307245  -10.31393281  -0.80434961  -3  461  0  0  0
H  12.08517245  -8.690132804  -0.08134961  -3  461  0  0  0
H  9.631172447  -6.082732804  3.55095039  -3  462  0  0  0
H  11.36217245  -7.937832804  4.23265039  -3  462  0  0  0
H  10.42247245  -7.859932804  1.77865039  -3  462  0  0  0
H  12.16797245  -8.619532804  8.62445039  -3  463  0  0  0
H  12.08517245  -9.561632804  6.17045039  -3  463  0  0  0
H  13.94517245  -10.39183281  7.83325039  -3  463  0  0  0
H  10.31287245  -1.851632804  -11.36524961  -3  464  0  0  0
H  12.25077245  -3.475432804  -12.08824961  -3  464  0  0  0
H  10.39077245  -4.305632804  -10.42554961  -3  464  0  0  0
H  9.631172447  0.003467197  -9.63424961  -3  465  0  0  0
H  11.36217245  1.858567197  -10.31594961  -3  465  0  0  0
H  9.631172447  6.089667197  -8.62154961  -3  466  0  0  0
H  10.42247245  4.312567197  -10.39384961  -3  466  0  0  0
H  34.73577245  1.748967197  7.86485039  -3  467  0  0  0
H  36.51297245  -3.546032804  3.55095039  -3  468  0  0  0
H  36.59577245  -2.603832804  6.00495039  -3  468  0  0  0
H  35.70717245  -7.937832804  4.23265039  -3  469  0  0  0
H  36.43017245  -6.000032804  2.60875039  -3  469  0  0  0
H  34.76747245  -7.859932804  1.77865039  -3  469  0  0  0
H  33.97627245  -8.619532804  6.08765039  -3  470  0  0  0
H  34.65787245  -6.888632804  7.94275039  -3  470  0  0  0
H  33.97627245  2.540267197  12.17395039  -3  471  0  0  0
H  34.65787245  0.809267197  10.31885039  -3  471  0  0  0
H  33.03407245  0.086267197  12.25675039  -3  471  0  0  0
H  28.57167245  -5.276932804  14.02905039  -3  472  0  0  0
H  26.11767245  -4.337232804  13.95115039  -3  472  0  0  0
H  30.42667245  -3.546032804  14.71075039  -3  473  0  0  0
H  32.28177245  -4.227732804  12.97975039  -3  473  0  0  0
H  32.20387245  -1.773732804  13.91945039  -3  473  0  0  0
H  30.50947245  -9.561632804  12.09115039  -3  474  0  0  0
H  28.64957245  -10.39183281  10.42845039  -3  474  0  0  0
H  24.34047245  -9.632232804  9.63715039  -3  475  0  0  0
H  26.19557245  -10.31393281  11.36815039  -3  475  0  0  0
H  24.25767245  -8.690132804  12.09115039  -3  475  0  0  0
H  32.96347245  -8.619532804  12.17395039  -3  476  0  0  0
H  33.90567245  -6.165532804  12.25675039  -3  476  0  0  0
H  34.73577245  -7.828332804  10.39675039  -3  476  0  0  0
H  26.19557245  11.37016719  14.02905039  -3  477  0  0  0
H  28.64957245  10.43046719  13.95115039  -3  477  0  0  0
H  24.34047245  9.639167197  14.71075039  -3  478  0  0  0
H  22.48537245  10.32086719  12.97975039  -3  478  0  0  0
H  36.51297245  9.639167197  2.53825039  -3  479  0  0  0
H  36.59577245  8.697067197  0.08425039  -3  479  0  0  0
H  38.36807245  4.234667197  -5.27894961  -3  480  0  0  0
H  38.29017245  1.780667197  -4.33924961  -3  480  0  0  0
H  39.04977245  6.089667197  -3.54804961  -3  481  0  0  0
H  37.31877245  7.944767197  -4.22974961  -3  481  0  0  0
H  38.25847245  7.866867197  -1.77574961  -3  481  0  0  0
H  36.43017245  6.172467197  -9.56364961  -3  482  0  0  0
H  34.76747245  4.312567197  -10.39384961  -3  482  0  0  0
H  33.97627245  0.003467197  -9.63424961  -3  483  0  0  0
H  35.70717245  1.858567197  -10.31594961  -3  483  0  0  0
H  36.43017245  -0.079332804  -8.69214961  -3  483  0  0  0
H  36.51297245  8.626467197  -8.62154961  -3  484  0  0  0
H  36.59577245  9.568567197  -6.16754961  -3  484  0  0  0
H  35.70717245  14.03106719  1.85655039  -3  485  0  0  0
H  36.43017245  12.09316719  3.48035039  -3  485  0  0  0
H  34.76747245  13.95316719  4.31055039  -3  485  0  0  0
H  33.97627245  14.71276719  0.00145039  -3  486  0  0  0
H  34.65787245  12.98176719  -1.85364961  -3  486  0  0  0
H  30.50947245  15.65486719  -6.00204961  -3  487  0  0  0
H  28.64957245  16.48506719  -4.33924961  -3  487  0  0  0
H  24.34047245  15.72546719  -3.54804961  -3  488  0  0  0
H  26.19557245  16.40716719  -5.27894961  -3  488  0  0  0
H  24.25767245  14.78326719  -6.00204961  -3  488  0  0  0
H  32.96347245  14.71276719  -6.08474961  -3  489  0  0  0
H  34.73577245  13.92146719  -4.30764961  -3  489  0  0  0
H  31.23257245  14.03106719  -7.93984961  -3  490  0  0  0
H  32.17227245  13.95316719  -10.39384961  -3  490  0  0  0
H  26.87727245  9.639167197  -12.17104961  -3  491  0  0  0
H  27.81937245  12.09316719  -12.25384961  -3  491  0  0  0
H  21.80377245  12.17596719  -9.63424961  -3  492  0  0  0
H  23.53467245  14.03106719  -10.31594961  -3  492  0  0  0
H  22.59497245  13.95316719  -7.86194961  -3  492  0  0  0
H  24.25767245  15.65486719  12.09115039  -3  493  0  0  0
H  26.11767245  16.48506719  10.42845039  -3  493  0  0  0
H  30.42667245  15.72546719  9.63715039  -3  494  0  0  0
H  28.57167245  16.40716719  11.36815039  -3  494  0  0  0
H  30.50947245  14.78326719  12.09115039  -3  494  0  0  0
H  19.50047245  8.619767197  4.61195039  -5  82  0  0  0
H  19.50047245  4.613967197  8.61775039  -5  122  0  0  0
H  19.53167245  9.611167197  4.99155039  -5  135  0  0  0
H  13.96297245  6.618067197  -3.24464961  -5  179  0  0  0
H  19.53167245  4.993567197  9.60915039  -5  194  0  0  0
H  20.04917245  12.70446719  3.24755039  -5  211  0  0  0
H  13.96297245  -3.242632804  6.61605039  -5  264  0  0  0
H  11.63947245  4.294767197  -3.24464961  -5  271  0  0  0
H  13.96287245  8.929867197  -5.55634961  -5  273  0  0  0
H  20.04917245  3.249567197  12.70245039  -5  288  0  0  0
H  20.04917245  15.01616719  5.55925039  -5  310  0  0  0
H  19.53167245  13.27206719  8.65245039  -5  311  0  0  0
H  11.63947245  -3.242632804  4.29275039  -5  380  0  0  0
H  13.96287245  -5.554332804  8.92785039  -5  382  0  0  0
H  9.327772447  4.294767197  -5.55634961  -5  388  0  0  0
H  11.63947245  8.929867197  -7.87974961  -5  391  0  0  0
H  20.04917245  5.561267197  15.01415039  -5  412  0  0  0
H  19.53167245  8.654467197  13.27005039  -5  413  0  0  0
H  21.77567245  13.27206719  10.89645039  -5  443  0  0  0
