632

C  19.58858956  4.706197546  0.046836852  -31  0  0  0  0
C  19.10589954  4.521892388  -1.28929919  -31  0  0  0  0
C  19.67692563  5.181751125  -2.35357686  -31  0  0  0  0
C  20.68821038  6.116804494  -2.11832211  -31  0  0  0  0
C  20.53945428  5.764425965  0.231393516  -31  0  0  0  0
C  21.12456972  6.442938039  -0.829933387  -31  0  0  0  0
H  18.29189926  3.824340241  -1.445923952  -44  0  0  0  0
H  19.32742837  5.010579485  -3.365969427  -44  0  0  0  0
C  18.6756171  4.21658078  1.201120786  -122  0  0  0  0
H  20.8576202  5.97841868  1.240173793  -44  0  0  0  0
C  22.19680884  7.503029257  -0.643509507  -122  0  0  0  0
H  21.13555817  6.629902846  -2.966695176  -44  0  0  0  0
C  22.07151579  8.270332406  0.674569835  -121  0  0  0  0
H  22.06038332  8.228320882  -1.45633053  -112  0  0  0  0
C  23.59120504  6.877234971  -0.797945667  -121  0  0  0  0
H  21.06638159  8.681833883  0.812881276  -111  0  0  0  0
H  22.78460509  9.098717393  0.693995907  -111  0  0  0  0
H  22.30168559  7.638048796  1.537695671  -111  0  0  0  0
H  23.76290647  6.104199484  -0.043568908  -111  0  0  0  0
H  24.36478203  7.642917831  -0.685620154  -111  0  0  0  0
H  23.71226028  6.407643032  -1.780170128  -111  0  0  0  0
C  19.14987366  4.65174536  2.58603829  -121  0  0  0  0
C  18.479828  2.695648831  1.179999897  -121  0  0  0  0
H  17.70104377  4.686840037  1.017277332  -112  0  0  0  0
H  19.18350205  5.740323  2.695055836  -111  0  0  0  0
H  18.45952411  4.270376142  3.343758719  -111  0  0  0  0
H  20.14383668  4.246298099  2.798341653  -111  0  0  0  0
H  19.40053749  2.184519923  1.478897369  -111  0  0  0  0
H  17.69797431  2.414651322  1.891096551  -111  0  0  0  0
H  18.18431645  2.314739197  0.197888215  -111  0  0  0  0
H  20.52392026  3.828354949  -0.044645267  0  33  0  0  0
Al  23.02713311  3.080373723  0.889065512  -2  35  33  36  34
O  21.55354391  2.758736106  -0.079517907  -1  31  32  0  0
O  23.45465708  1.601311165  1.686359004  -1  32  45  0  0
O  24.31019564  3.62297094  -0.111150946  -1  37  32  0  0
O  22.47034156  4.326598808  1.935917065  -1  32  49  0  0
Si  25.25092406  3.084858369  -1.282157778  -2  38  54  53  35
O  24.40338212  2.591181852  -2.616918862  -1  39  37  0  0
Si  23.47751042  1.326455243  -3.053732208  -2  63  62  38  40
O  22.49736109  0.872899014  -1.803153275  -1  39  41  0  0
Si  21.26108877  1.357198688  -0.849664179  -2  40  50  42  0
O  20.87080144  0.13672019  0.14640245  -1  41  43  0  0
Si  21.30156137  -0.891044023  1.353726044  -2  42  64  65  44
O  21.73239357  -0.12049356  2.724909968  -1  43  45  0  0
Si  23.03639537  0.840039515  3.031089775  -2  34  44  52  46
O  22.60218825  1.839342879  4.258227735  -1  45  47  0  0
Si  23.06747763  3.074182607  5.217617246  -2  48  46  72  73
O  23.64434271  4.35280097  4.370593879  -1  49  47  0  0
Si  23.07020243  5.229963199  3.107837325  -2  36  56  55  48
O  19.96939193  1.74826112  -1.760889653  -1  51  41  0  0
Si  19.12707442  1.279389137  -3.060697031  -2  67  66  68  50
O  24.2582899  -0.074836407  3.480840042  -1  45  57  0  0
O  26.1961899  1.863093593  -0.803849958  -1  58  37  0  0
O  26.1182899  4.317103593  -1.743529958  -1  59  37  0  0
O  21.8044099  6.094173593  3.551500042  -1  49  60  0  0
O  24.2583099  6.176973593  2.609300042  -1  61  49  0  0
Si  25.2272799  -1.284736407  3.047530042  -23  70  69  52  71
Si  27.3866799  0.894193593  -1.290759958  -23  74  76  53  75
Si  27.3817999  5.208093593  -1.290719958  -23  77  54  78  79
Si  21.2955099  6.980363593  4.795510042  -23  55  82  80  81
Si  25.2273099  7.386963593  3.042700042  -23  85  56  83  84
O  24.4238699  0.090823593  -3.476959958  -1  86  39  0  0
O  22.5638799  1.753543593  -4.307139958  -1  87  39  0  0
O  22.4859799  -1.847106407  0.807730042  -1  88  43  0  0
O  20.0319799  -1.769206407  1.747430042  -1  89  43  0  0
O  18.2547799  2.544843593  -3.547519958  -1  90  51  0  0
O  20.1098699  0.813843593  -4.229239958  -1  87  51  0  0
O  18.1720799  0.090843593  -2.605349958  -1  51  91  0  0
O  24.3410799  -2.528826407  2.538720042  -1  88  57  0  0
O  26.1961799  -0.797826407  1.857030042  -1  92  57  0  0
O  26.1182799  -1.737546407  4.311020042  -1  57  93  0  0
O  21.8044099  3.557453593  6.088180042  -1  47  94  0  0
O  24.2582999  2.615243593  6.170960042  -1  47  95  0  0
O  26.8778799  0.008013593  -2.534859958  -1  86  58  0  0
O  27.8199799  -0.074816407  -0.080869958  -1  58  92  0  0
O  28.6501799  1.785193593  -1.743549958  -1  58  96  0  0
O  27.8905999  6.094203593  -2.534809958  -1  97  59  0  0
O  28.5722899  4.239183593  -0.803829958  -1  59  96  0  0
O  26.9483999  6.176983593  -0.080809958  -1  59  98  0  0
O  22.4860199  7.949253593  5.282410042  -1  99  60  0  0
O  20.8622099  6.011453593  6.005500042  -1  60  94  0  0
O  20.0320199  7.871373593  4.342720042  -1  614  60  0  0
O  24.3411199  8.630963593  3.551520042  -1  61  99  0  0
O  26.1962099  6.900053593  4.233200042  -1  61  100  0  0
O  26.1183099  7.839773593  1.779210042  -1  98  61  0  0
Si  25.6337699  -0.878186407  -3.043669958  -23  102  62  74  101
Si  21.3003699  1.300753593  -5.198139958  -22  104  103  63  67
Si  23.4548699  -3.037616407  1.294620042  -23  105  64  106  69
Si  19.1409699  -3.032696407  1.294620042  -23  109  108  65  107
Si  17.3686799  3.053663593  -4.791519958  -23  111  110  112  66
Si  16.9620699  -0.878156407  -3.038749958  -23  114  113  68  115
Si  27.3866799  -1.284726407  0.888120042  -2  75  116  117  70
Si  27.3817899  -1.284756407  5.202020042  -2  119  71  118  120
Si  21.2955099  4.801443593  6.974390042  -23  81  72  122  121
Si  25.2273099  3.048623593  7.380970042  -23  73  124  125  123
Si  29.5411899  3.048693593  -1.290739958  -2  126  76  78  127
Si  29.1345999  6.980403593  -3.043609958  -2  130  129  77  128
Si  27.3818099  7.386973593  0.888200042  -2  79  131  85  132
Si  23.4549199  9.139753593  4.795520042  -2  83  134  80  133
Si  27.3867199  7.386943593  5.202100042  -2  84  138  136  137
O  25.1468699  -1.847086407  -1.853179958  -1  86  139  0  0
O  26.0865699  -1.769176407  -4.307179958  -1  140  86  0  0
O  20.7915799  2.544863593  -6.084229958  -1  141  87  0  0
O  21.7336699  0.090863593  -6.167049958  -1  142  87  0  0
O  24.4238699  -3.470906407  0.084710042  -1  139  88  0  0
O  22.5638699  -4.301116407  1.747410042  -1  88  143  0  0
O  18.2547699  -3.541506407  2.538720042  -1  89  144  0  0
O  20.1098699  -4.223196407  0.807710042  -1  89  143  0  0
O  18.1720699  -2.599286407  0.084730042  -1  145  89  0  0
O  16.3997799  1.863173593  -5.278429958  -1  90  146  0  0
O  18.3375799  3.486973593  -6.001519958  -1  141  90  0  0
O  16.4776899  4.317163593  -4.338699958  -1  90  147  0  0
O  15.7180699  0.008053593  -3.547539958  -1  146  91  0  0
O  17.4489699  -1.847046407  -4.229259958  -1  148  91  0  0
O  16.5092699  -1.769156407  -1.775259958  -1  91  145  0  0
O  26.8778699  -2.528816407  0.001910042  -1  139  92  0  0
O  28.6501799  -1.737536407  1.779120042  -1  92  149  0  0
O  27.8905799  -2.528866407  6.088110042  -1  93  150  0  0
O  28.5722899  -0.797856407  4.233120042  -1  149  93  0  0
O  26.9483899  -0.074866407  6.170930042  -1  93  151  0  0
O  22.4860199  5.288333593  7.943290042  -1  94  152  0  0
O  20.0320099  4.348643593  7.865390042  -1  94  615  0  0
O  24.3411099  3.557423593  8.624970042  -1  95  152  0  0
O  26.1962099  4.239123593  6.894070042  -1  153  95  0  0
O  26.1182999  1.785123593  7.833750042  -1  95  151  0  0
O  30.4272899  3.557493593  -2.534839958  -1  154  96  0  0
O  30.5100899  2.615273593  -0.080849958  -1  96  155  0  0
O  29.6214999  7.949293593  -1.853099958  -1  97  156  0  0
O  30.3445899  6.011503593  -3.476919958  -1  154  97  0  0
O  28.6817999  7.871423593  -4.307099958  -1  157  97  0  0
O  27.8906099  8.630983593  0.002010042  -1  156  98  0  0
O  28.5723099  6.900063593  1.857090042  -1  98  158  0  0
O  24.4239299  9.573043593  6.005530042  -1  99  159  0  0
O  22.5639299  10.40326359  4.342740042  -1  160  99  0  0
O  20.1099299  10.32536359  5.282440042  -1  160  616  0  0
O  26.8779199  8.630933593  6.088210042  -1  100  159  0  0
O  27.8200099  6.176933593  6.170990042  -1  100  153  0  0
O  28.6502199  7.839743593  4.311100042  -1  158  100  0  0
Si  25.6337699  -3.037596407  -0.884289958  -2  101  161  116  105
Si  25.6337599  -3.032666407  -5.198189958  -2  164  162  102  163
Si  19.5475799  3.053673593  -6.970419958  -2  165  166  103  111
Si  21.3003599  -0.878126407  -7.377059958  -2  167  169  168  104
Si  21.3003699  -5.192106407  1.294600042  -2  171  108  106  170
Si  17.3686699  -4.785506407  3.047510042  -2  172  107  173  174
Si  16.9620699  -3.032666407  -0.884269958  -2  176  115  175  109
Si  15.2092699  0.894273593  -4.791529958  -2  177  110  178  113
Si  15.2141899  5.208173593  -4.791489958  -2  181  180  112  179
Si  16.9620599  -3.037536407  -5.198169958  -2  183  182  184  114
Si  29.5411799  -1.284746407  3.042620042  -2  117  186  185  119
Si  29.1345799  -3.037686407  6.974300042  -2  188  118  189  187
Si  27.3817999  0.894123593  7.380940042  -2  120  191  125  190
Si  23.4549199  4.801413593  9.133780042  -2  121  123  192  193
Si  27.3867099  5.208023593  7.380980042  -2  137  124  196  195
Si  31.3134899  4.801503593  -3.043629958  -2  198  129  126  197
Si  31.7200899  3.048663593  0.888150042  -2  127  199  201  200
Si  29.1346099  9.139783593  -0.884189958  -2  128  203  131  202
Si  29.1345999  9.134923593  -5.198089958  -2  206  204  130  205
Si  29.5412099  7.386953593  3.047600042  -2  132  207  208  138
Si  25.6338299  9.139733593  6.974420042  -2  133  136  210  209
Si  21.3004299  11.29426359  4.795550042  -2  211  134  135  212
O  26.0865599  -4.301096407  -1.775299958  -1  213  139  0  0
O  26.8778599  -3.541456407  -6.084299958  -1  214  140  0  0
O  25.1468599  -4.223166407  -4.229299958  -1  140  213  0  0
O  24.4238599  -2.599246407  -6.167079958  -1  215  140  0  0
O  19.0606699  1.863183593  -7.939329958  -1  216  141  0  0
O  20.0003799  4.317183593  -7.861409958  -1  217  141  0  0
O  20.7915599  0.008083593  -8.621049958  -1  216  142  0  0
O  20.1098599  -1.847026407  -6.890169958  -1  142  218  0  0
O  22.5638599  -1.769126407  -7.829869958  -1  215  142  0  0
O  20.7915599  -6.078216407  2.538690042  -1  143  219  0  0
O  21.7336599  -6.160996407  0.084690042  -1  220  143  0  0
O  16.3997699  -5.272396407  1.857010042  -1  221  144  0  0
O  18.3375699  -5.995516407  3.480800042  -1  144  219  0  0
O  16.4776699  -4.332716407  4.311020042  -1  144  222  0  0
O  15.7180699  -3.541476407  0.001930042  -1  145  221  0  0
O  17.4489599  -4.223166407  -1.853179958  -1  223  145  0  0
O  14.7758699  -0.074716407  -6.001539958  -1  224  146  0  0
O  13.9457799  1.785273593  -4.338719958  -1  146  225  0  0
O  14.7053899  6.094263593  -3.547489958  -1  147  617  0  0
O  14.0236799  4.239273593  -5.278399958  -1  225  147  0  0
O  15.6474899  6.177083593  -6.001489958  -1  226  147  0  0
O  15.7180599  -2.528716407  -6.084259958  -1  224  148  0  0
O  18.1720599  -3.470826407  -6.167079958  -1  218  148  0  0
O  16.5092599  -4.301036407  -4.307179958  -1  148  223  0  0
O  30.4272799  -2.528856407  3.551400042  -1  149  227  0  0
O  30.5100899  -0.074846407  2.609230042  -1  149  228  0  0
O  29.6214899  -1.847196407  7.943210042  -1  150  229  0  0
O  30.3445799  -3.470976407  6.005400042  -1  227  150  0  0
O  28.6817799  -4.301186407  7.865290042  -1  150  230  0  0
O  27.8905999  0.007903593  8.624930042  -1  151  229  0  0
O  28.5722999  1.863023593  6.894050042  -1  231  151  0  0
O  24.4239199  6.011413593  9.567090042  -1  152  232  0  0
O  22.5639199  4.348613593  10.39728004  -1  152  233  0  0
O  20.1099199  5.288323593  10.31940004  -1  618  233  0  0
O  26.8779199  6.094113593  8.624990042  -1  153  232  0  0
O  28.6502099  4.317013593  7.833770042  -1  153  231  0  0
O  32.2823899  5.288383593  -1.853129958  -1  154  234  0  0
O  32.2044899  4.348703593  -4.307139958  -1  235  154  0  0
O  32.9640899  3.557463593  0.001950042  -1  234  155  0  0
O  31.2331999  4.239153593  1.857060042  -1  155  236  0  0
O  32.1728899  1.785153593  1.779140042  -1  155  228  0  0
O  30.3446099  9.573073593  0.084810042  -1  156  237  0  0
O  28.6818099  10.40329359  -1.775179958  -1  238  156  0  0
O  27.8905999  9.643733593  -6.084179958  -1  239  157  0  0
O  29.6215099  10.32541359  -4.229179958  -1  157  238  0  0
O  30.3445999  8.701633593  -6.166989958  -1  240  157  0  0
O  30.4273199  8.630953593  2.538800042  -1  237  158  0  0
O  30.5101099  6.176943593  3.480880042  -1  158  236  0  0
O  25.1469199  7.949223593  7.943310042  -1  159  232  0  0
O  26.0866299  10.40322359  7.865430042  -1  159  241  0  0
O  20.7916299  12.18047359  3.551560042  -1  619  160  0  0
O  21.7337399  12.26325359  6.005550042  -1  160  242  0  0
Si  25.6337599  -5.192086407  -3.038809958  -2  163  243  244  161
Si  27.3866499  -4.785456407  -6.970509958  -2  245  247  162  246
Si  23.4548499  -3.032636407  -7.377079958  -2  248  169  249  164
Si  19.5475599  0.894293593  -9.129839958  -2  251  250  167  165
Si  19.5475799  5.208193593  -9.124899958  -2  253  252  254  166
Si  19.1409499  -3.037516407  -7.377079958  -2  255  256  168  183
Si  19.5475599  -6.964416407  3.047490042  -2  257  170  173  258
Si  21.3003499  -7.370986407  -0.884319958  -2  260  261  259  171
Si  15.2092699  -4.785476407  0.888120042  -2  262  175  263  172
Si  15.2141699  -4.785516407  5.202020042  -2  265  174  264  266
Si  16.9620599  -5.192056407  -3.043689958  -2  184  268  267  176
Si  15.2092599  -1.284606407  -6.970449958  -2  269  270  182  177
Si  13.0547799  3.048773593  -4.791509958  -2  272  180  178  271
Si  15.2141899  7.387093593  -6.970369958  -2  274  275  273  181
Si  31.3134799  -3.037666407  4.795400042  -2  185  277  276  188
Si  31.7200899  0.894143593  3.042630042  -2  201  186  278  279
Si  29.1345999  -0.878306407  9.133720042  -2  187  190  280  281
Si  29.1345799  -5.192206407  9.128780042  -2  189  284  282  283
Si  29.5412099  3.053513593  7.380960042  -2  286  191  196  285
Si  25.6338199  6.980313593  9.133800042  -2  209  195  192  287
Si  21.3004199  4.801403593  11.28829004  -2  194  193  288  289
Si  33.4728999  4.801473593  -0.884239958  -2  197  291  199  290
Si  33.4679899  4.801513593  -5.198139958  -2  294  292  198  293
Si  31.7200999  5.208043593  3.047570042  -2  200  295  208  296
Si  31.3135099  9.139763593  1.294710042  -2  202  297  298  207
Si  29.1346099  11.29430359  -3.038669958  -2  205  299  300  203
Si  27.3817999  10.88784359  -6.970369958  -2  301  303  204  302
Si  31.3134999  9.134933593  -7.376989958  -2  304  306  305  206
Si  25.6338399  11.29421359  9.128940042  -2  210  309  307  308
Si  21.3004399  13.47314359  6.974470042  -2  212  310  312  311
O  26.8778499  -6.078176407  -3.547619958  -1  313  213  0  0
O  24.4238499  -6.160976407  -2.605409958  -1  314  213  0  0
O  26.1961499  -5.272336407  -7.939409958  -1  315  214  0  0
O  27.8199499  -5.995466407  -6.001619958  -1  214  313  0  0
O  28.6501499  -4.332646407  -7.861509958  -1  316  214  0  0
O  24.3410499  -3.541426407  -8.621089958  -1  315  215  0  0
O  22.4859499  -4.223136407  -6.890189958  -1  215  317  0  0
O  18.3375599  -0.074696407  -9.563149958  -1  216  318  0  0
O  20.0003599  1.785303593  -10.39332996  -1  319  216  0  0
O  20.7915799  6.094293593  -9.633699958  -1  320  217  0  0
O  19.0606699  4.239303593  -10.31540996  -1  319  217  0  0
O  18.3375799  6.177093593  -8.691589958  -1  321  217  0  0
O  18.2547499  -2.528706407  -8.621069958  -1  318  218  0  0
O  20.0319499  -4.301016407  -7.829889958  -1  317  218  0  0
O  19.0606599  -7.933306407  1.856980042  -1  322  219  0  0
O  20.0003599  -7.855426407  4.310980042  -1  219  323  0  0
O  20.7915499  -8.614996407  0.001870042  -1  220  322  0  0
O  20.1098499  -6.884076407  -1.853209958  -1  324  220  0  0
O  22.5638499  -7.823786407  -1.775329958  -1  314  220  0  0
O  14.7758599  -5.995466407  -0.080889958  -1  325  221  0  0
O  13.9457699  -4.332686407  1.779120042  -1  221  326  0  0
O  14.7053799  -3.541526407  6.088130042  -1  222  620  0  0
O  14.0236699  -5.272406407  4.233110042  -1  326  222  0  0
O  15.6474699  -5.995526407  6.170910042  -1  222  327  0  0
O  15.7180499  -6.078156407  -2.534899958  -1  223  325  0  0
O  18.1720499  -6.160956407  -3.476999958  -1  223  324  0  0
O  16.3997599  -0.797706407  -7.939349958  -1  318  224  0  0
O  13.9457599  -1.737396407  -7.861449958  -1  328  224  0  0
O  12.1685899  3.557573593  -3.547499958  -1  225  621  0  0
O  12.0857799  2.615393593  -6.001509958  -1  329  225  0  0
O  14.7053999  8.631083593  -6.084159958  -1  226  622  0  0
O  14.0236899  6.900203593  -7.939279958  -1  330  226  0  0
O  16.4776899  7.839893593  -7.861369958  -1  321  226  0  0
O  32.2823899  -1.847176407  5.282310042  -1  331  227  0  0
O  32.2044699  -4.301166407  4.342590042  -1  332  227  0  0
O  32.9640899  0.007933593  3.551420042  -1  228  331  0  0
O  31.2331999  1.863033593  4.233140042  -1  228  333  0  0
O  30.3445999  0.090693593  9.567030042  -1  229  334  0  0
O  28.6817999  -1.769316407  10.39722004  -1  229  335  0  0
O  27.8905799  -6.078306407  9.637580042  -1  230  336  0  0
O  29.6214899  -4.223316407  10.31929004  -1  230  335  0  0
O  30.3445799  -6.161106407  8.695470042  -1  230  337  0  0
O  30.4273099  2.544693593  8.624950042  -1  231  334  0  0
O  30.5101099  3.486823593  6.170960042  -1  333  231  0  0
O  26.0866299  7.871293593  10.39731004  -1  232  338  0  0
O  20.7916199  3.557403593  12.17448004  -1  233  623  0  0
O  21.7337299  6.011393593  12.25730004  -1  233  339  0  0
O  33.9062999  6.011463593  0.084770042  -1  234  340  0  0
O  34.7363899  4.348673593  -1.775239958  -1  341  234  0  0
O  33.9768799  3.557513593  -6.084249958  -1  342  235  0  0
O  34.6584899  5.288393593  -4.229229958  -1  235  341  0  0
O  33.0346899  6.011523593  -6.167019958  -1  343  235  0  0
O  32.9641099  6.094143593  2.538780042  -1  340  236  0  0
O  32.1728999  4.317033593  4.311060042  -1  236  333  0  0
O  32.2824099  7.949263593  0.807790042  -1  237  340  0  0
O  32.2045199  10.40325359  1.747520042  -1  237  344  0  0
O  27.8906199  12.18051359  -3.547459958  -1  345  238  0  0
O  30.3446199  12.26329359  -2.605259958  -1  238  346  0  0
O  28.5722999  11.37475359  -7.939269958  -1  347  239  0  0
O  26.9484099  12.09774359  -6.001459958  -1  239  345  0  0
O  26.1182999  10.43506359  -7.861369958  -1  348  239  0  0
O  30.4272999  9.643753593  -8.620989958  -1  347  240  0  0
O  32.2823999  10.32543359  -6.890079958  -1  349  240  0  0
O  32.2044899  7.871433593  -7.829809958  -1  343  240  0  0
O  26.8779399  12.18040359  9.637740042  -1  241  350  0  0
O  25.1469399  10.32530359  10.31943004  -1  241  338  0  0
O  24.4239399  12.26321359  8.695650042  -1  351  241  0  0
O  20.7916399  14.71725359  6.088280042  -1  624  242  0  0
O  20.1099399  12.98624359  7.943360042  -1  242  625  0  0
O  22.5639399  13.92593359  7.865470042  -1  242  351  0  0
Si  27.3866499  -6.964376407  -4.791629958  -2  246  352  353  243
Si  23.4548499  -7.370976407  -3.038819958  -2  355  354  244  261
Si  25.2272399  -4.785426407  -9.129899958  -2  357  356  248  245
Si  29.5411399  -4.785436407  -9.125009958  -2  359  358  360  247
Si  21.2954499  -5.192026407  -7.377099958  -2  361  256  249  362
Si  17.3686599  -1.284596407  -9.129859958  -2  363  250  255  269
Si  19.5475699  3.048813593  -11.28431996  -2  365  364  251  253
Si  21.3003799  6.980503593  -10.87778996  -2  367  366  368  252
Si  17.3686899  7.387103593  -9.124879958  -2  370  369  254  275
Si  19.5475499  -9.123796407  0.888070042  -2  371  259  372  257
Si  19.5475599  -9.118936407  5.201970042  -2  374  258  373  375
Si  19.1409499  -7.370956407  -3.043709958  -2  377  268  376  260
Si  15.2092499  -6.964356407  -1.290799958  -2  267  379  378  262
Si  13.0547699  -4.785496407  3.042620042  -2  263  381  380  265
Si  15.2141699  -6.964436407  7.380900042  -2  266  383  384  382
Si  13.0547599  -1.284586407  -9.124949958  -2  386  385  387  270
Si  10.8758799  3.048803593  -6.970399958  -2  389  390  388  272
Si  13.0547899  7.387113593  -9.129769958  -2  393  392  391  274
Si  33.4728899  -0.878276407  4.795410042  -2  278  395  276  394
Si  33.4679699  -5.192176407  4.795370042  -2  396  277  397  398
Si  31.7200999  3.053523593  5.202050042  -2  279  296  399  286
Si  31.3134999  1.300593593  9.133740042  -2  400  285  280  401
Si  29.1345899  -3.032816407  11.28820004  -2  283  281  402  403
Si  27.3817799  -6.964516407  10.88167004  -2  282  406  404  405
Si  31.3134699  -7.371106407  9.128760042  -2  409  284  407  408
Si  25.6338399  9.134793593  11.28832004  -2  308  287  410  411
Si  21.3004299  6.980283593  13.46721004  -2  289  413  414  412
Si  33.4729099  6.980353593  1.294680042  -2  290  297  415  295
Si  35.6273899  4.801483593  -3.038739958  -2  293  416  417  291
Si  35.2208799  3.048723593  -6.970459958  -2  418  420  292  419
Si  33.4679899  6.980433593  -7.377019958  -2  421  306  422  294
Si  33.4680199  11.29425359  1.294720042  -2  425  424  298  423
Si  27.3818199  13.06672359  -4.791449958  -2  302  426  427  299
Si  31.3135199  13.47320359  -3.038649958  -2  429  428  300  430
Si  29.5411999  10.88786359  -9.129769958  -2  432  431  304  301
Si  25.2272999  10.88787359  -9.124859958  -2  434  433  435  303
Si  33.4728999  11.29433359  -7.376979958  -2  436  438  305  437
Si  27.3867499  13.06658359  10.88185004  -2  307  441  439  440
Si  23.4549499  13.47311359  9.128960042  -2  312  309  442  443
O  26.1961399  -7.933266407  -5.278529958  -1  444  313  0  0
O  28.6501399  -7.855376407  -4.338839958  -1  445  313  0  0
O  24.3410399  -8.614976407  -3.547639958  -1  444  314  0  0
O  22.4859499  -6.884056407  -4.229319958  -1  446  314  0  0
O  24.2582399  -5.995416407  -9.563209958  -1  315  447  0  0
O  26.1182399  -4.332616407  -10.39339996  -1  448  315  0  0
O  30.4272499  -3.541436407  -9.633799958  -1  449  316  0  0
O  28.5722399  -5.272326407  -10.31551996  -1  448  316  0  0
O  30.5100399  -5.995446407  -8.691729958  -1  450  316  0  0
O  21.8043399  -6.078116407  -8.621109958  -1  447  317  0  0
O  20.8621499  -6.160936407  -6.167109958  -1  317  446  0  0
O  16.4776499  -1.737386407  -10.39335996  -1  451  318  0  0
O  20.7915699  3.557613593  -12.17051996  -1  452  319  0  0
O  18.3375599  2.615423593  -12.25331996  -1  453  319  0  0
O  20.1098799  7.949413593  -11.36467996  -1  320  454  0  0
O  21.7336799  6.011613593  -12.08769996  -1  452  320  0  0
O  22.5638899  7.871493593  -10.42498996  -1  320  455  0  0
O  18.2547899  8.631103593  -9.633669958  -1  454  321  0  0
O  16.3997799  6.900213593  -10.31537996  -1  456  321  0  0
O  18.3375499  -9.557086407  -0.080929958  -1  457  322  0  0
O  20.0003499  -10.38730641  1.779060042  -1  322  458  0  0
O  20.7915599  -9.627746407  6.088060042  -1  323  459  0  0
O  19.0606499  -10.30942641  4.233060042  -1  458  323  0  0
O  18.3375599  -8.685636407  6.170880042  -1  323  460  0  0
O  18.2547499  -8.614956407  -2.534919958  -1  324  457  0  0
O  20.0319399  -7.823746407  -4.307219958  -1  446  324  0  0
O  16.3997499  -7.933266407  -0.803909958  -1  457  325  0  0
O  13.9457499  -7.855356407  -1.743609958  -1  325  461  0  0
O  12.1685799  -3.541496407  3.551430042  -1  326  626  0  0
O  12.0857699  -5.995486407  2.609210042  -1  326  462  0  0
O  14.7053799  -6.078246407  8.624910042  -1  327  627  0  0
O  14.0236699  -7.933326407  6.893990042  -1  327  463  0  0
O  16.4776699  -7.855446407  7.833690042  -1  460  327  0  0
O  12.1685499  -2.528676407  -9.633759958  -1  464  328  0  0
O  14.0236599  -0.797676407  -10.31544996  -1  451  328  0  0
O  12.0857599  -0.074686407  -8.691629958  -1  465  328  0  0
O  9.631779897  3.557603593  -6.084199958  -1  329  628  0  0
O  11.3627799  4.239313593  -7.939289958  -1  466  329  0  0
O  10.4230699  1.785313593  -7.861409958  -1  465  329  0  0
O  12.1685899  8.631113593  -8.620959958  -1  330  629  0  0
O  12.0857799  6.177123593  -9.563079958  -1  330  466  0  0
O  13.9457899  7.839923593  -10.39326996  -1  456  330  0  0
O  33.9062899  0.090713593  6.005420042  -1  331  467  0  0
O  34.7363799  -1.769276407  4.342600042  -1  468  331  0  0
O  33.9768699  -6.078266407  3.551370042  -1  469  332  0  0
O  34.6584799  -4.223286407  5.282280042  -1  468  332  0  0
O  33.0346699  -6.161086407  6.005370042  -1  332  470  0  0
O  32.9640999  2.544713593  6.088140042  -1  333  467  0  0
O  32.2823999  0.813693593  7.943230042  -1  467  334  0  0
O  32.2045099  1.753373593  10.39724004  -1  334  471  0  0
O  27.8905899  -3.541626407  12.17440004  -1  335  472  0  0
O  30.3445999  -2.599436407  12.25720004  -1  335  473  0  0
O  28.5722799  -7.933416407  11.36856004  -1  336  474  0  0
O  26.9483899  -5.995616407  12.09158004  -1  336  472  0  0
O  26.1182799  -7.855506407  10.42887004  -1  336  475  0  0
O  30.4272699  -8.615106407  9.637550042  -1  337  474  0  0
O  32.2823799  -6.884226407  10.31926004  -1  337  476  0  0
O  32.2044699  -7.823896407  7.865250042  -1  470  337  0  0
O  26.8779399  9.643583593  12.17452004  -1  338  477  0  0
O  24.4239399  8.701483593  12.25732004  -1  338  478  0  0
O  20.7916299  6.094073593  14.71130004  -1  339  630  0  0
O  20.1099399  7.949193593  12.98032004  -1  631  339  0  0
O  22.5639399  7.871273593  13.92001004  -1  478  339  0  0
O  34.7364099  7.871343593  1.747490042  -1  479  340  0  0
O  36.5135899  3.557483593  -3.547549958  -1  480  341  0  0
O  36.5963999  6.011473593  -2.605329958  -1  481  341  0  0
O  35.7077799  4.239223593  -7.939349958  -1  482  342  0  0
O  36.4307799  2.615303593  -6.001559958  -1  342  480  0  0
O  34.7680699  1.785233593  -7.861469958  -1  483  342  0  0
O  33.9768799  6.094243593  -8.621029958  -1  482  343  0  0
O  34.6584899  7.949323593  -6.890109958  -1  484  343  0  0
O  33.9769299  12.18044359  2.538830042  -1  344  485  0  0
O  34.6585199  10.32535359  0.807810042  -1  479  344  0  0
O  33.0347199  12.26326359  0.084830042  -1  486  344  0  0
O  28.5723199  14.03562359  -5.278339958  -1  345  487  0  0
O  26.1183199  13.95772359  -4.338639958  -1  345  488  0  0
O  30.4273199  14.71730359  -3.547439958  -1  487  346  0  0
O  32.2824199  12.98630359  -4.229159958  -1  489  346  0  0
O  32.2045199  13.92598359  -1.775149958  -1  346  486  0  0
O  30.5100999  12.09776359  -9.563059958  -1  347  490  0  0
O  28.6501899  10.43507359  -10.39327996  -1  491  347  0  0
O  24.3410899  9.643783593  -9.633669958  -1  455  348  0  0
O  26.1961999  11.37478359  -10.31535996  -1  491  348  0  0
O  24.2582999  12.09777359  -8.691549958  -1  348  492  0  0
O  32.9640999  12.18054359  -8.620969958  -1  490  349  0  0
O  33.9063099  12.26331359  -6.166969958  -1  349  489  0  0
O  34.7363999  10.40333359  -7.829789958  -1  484  349  0  0
O  26.1962499  14.03548359  11.36876004  -1  350  493  0  0
O  27.8200499  12.09757359  12.09174004  -1  350  477  0  0
O  28.6502499  13.95758359  10.42906004  -1  350  494  0  0
O  24.3411499  14.71721359  9.637770042  -1  351  493  0  0
O  22.4860499  12.98621359  10.31946004  -1  351  632  0  0
Si  25.2272399  -9.123766407  -4.791639958  -2  495  352  496  354
Si  29.5411399  -9.118876407  -4.791649958  -2  499  498  353  497
Si  21.2954399  -7.370946407  -5.198219958  -2  362  500  377  355
Si  23.0483399  -6.964316407  -9.129919958  -2  502  356  361  501
Si  27.3817399  -4.785416407  -11.28440996  -2  504  503  357  359
Si  31.3134499  -3.032626407  -10.87789996  -2  506  505  507  358
Si  31.7200399  -6.964346407  -9.125039958  -2  509  508  360  510
Si  15.2141499  -1.284576407  -11.28434996  -2  512  511  363  386
Si  21.3003699  4.801623593  -13.05670996  -2  513  514  364  367
Si  17.3686599  3.048843593  -13.46321996  -2  515  517  516  365
Si  19.1409899  9.139913593  -10.87776996  -2  518  366  519  369
Si  23.4548899  9.134993593  -10.87777996  -2  521  520  368  433
Si  15.2092799  7.387123593  -11.28426996  -2  523  522  393  370
Si  17.3686499  -9.123766407  -1.290829958  -2  376  524  378  371
Si  19.5475499  -11.27831641  3.042550042  -2  372  526  525  374
Si  21.3003599  -10.87185641  6.974250042  -2  528  373  529  527
Si  17.3686599  -9.118946407  7.380870042  -2  375  531  384  530
Si  13.0547499  -9.118856407  -1.290819958  -2  532  379  533  534
Si  10.8758599  -6.964386407  3.042610042  -2  537  381  535  536
Si  13.0547599  -9.123826407  7.380880042  -2  539  383  540  538
Si  11.2823499  -3.037466407  -10.87785996  -2  542  541  543  385
Si  10.8758599  0.894323593  -9.124919958  -2  545  544  387  390
Si  10.8758799  5.208223593  -9.129789958  -2  547  392  546  389
Si  33.4728999  1.300603593  6.974330042  -2  394  399  548  400
Si  35.6273799  -3.032786407  4.795390042  -2  549  395  397  550
Si  35.2208599  -6.964466407  3.042560042  -2  553  552  396  551
Si  33.4679699  -7.371096407  6.974260042  -2  398  554  409  555
Si  33.4680099  1.300563593  11.28823004  -2  557  401  556  558
Si  27.3817899  -4.785626407  13.06059004  -2  405  402  560  559
Si  31.3134999  -3.032846407  13.46710004  -2  403  562  563  561
Si  29.5411699  -9.123916407  10.88165004  -2  407  565  404  564
Si  25.2272699  -9.119006407  10.88166004  -2  566  406  567  568
Si  33.4728799  -7.371136407  11.28816004  -2  408  571  569  570
Si  27.3867499  10.88767359  13.06073004  -2  440  410  573  572
Si  23.4549399  9.134783593  13.46722004  -2  411  575  414  574
Si  35.6274099  9.134843593  1.294700042  -2  577  424  415  576
Si  37.3997799  3.048693593  -4.791559958  -2  419  578  579  416
Si  37.8062999  6.980373593  -3.038729958  -2  581  580  417  582
Si  35.2208799  5.208143593  -9.129839958  -2  584  583  421  418
Si  35.2208599  0.894243593  -9.124969958  -2  586  585  587  420
Si  35.6273999  9.139823593  -7.376999958  -2  588  438  422  589
Si  35.2209299  13.06663359  3.047630042  -2  590  423  591  592
Si  33.4680299  13.47317359  -0.884159958  -2  594  430  593  425
Si  29.5412199  15.22612359  -4.791439958  -2  595  426  596  428
Si  25.2273199  15.22123359  -4.791429958  -2  599  598  427  597
Si  33.4729199  13.47321359  -5.198059958  -2  437  600  601  429
Si  31.7201099  13.06675359  -9.129759958  -2  603  431  436  602
Si  27.3866899  10.88788359  -11.28426996  -2  605  604  432  434
Si  23.0484099  13.06678359  -9.124839958  -2  607  606  435  608
Si  25.2273599  15.22599359  10.88187004  -2  442  610  439  609
Si  29.5412599  15.22108359  10.88186004  -2  611  441  612  613
H  24.2582399  -9.557046407  -6.001639958  -3  444  0  0  0
H  26.1182399  -10.38727641  -4.338859958  -3  444  0  0  0
H  30.4272399  -9.627696407  -3.547659958  -3  445  0  0  0
H  28.5722299  -10.30937641  -5.278559958  -3  445  0  0  0
H  30.5100399  -8.685576407  -6.001649958  -3  445  0  0  0
H  21.8043399  -8.614936407  -6.084329958  -3  446  0  0  0
H  23.5352399  -7.933226407  -7.939429958  -3  447  0  0  0
H  22.5955299  -7.855306407  -10.39342996  -3  447  0  0  0
H  27.8905399  -3.541406407  -12.17059996  -3  448  0  0  0
H  26.9483299  -5.995406407  -12.25341996  -3  448  0  0  0
H  32.2823399  -4.223126407  -11.36480996  -3  449  0  0  0
H  30.3445499  -2.599216407  -12.08779996  -3  449  0  0  0
H  32.2044499  -1.769136407  -10.42508996  -3  449  0  0  0
H  32.9640399  -6.078146407  -9.633829958  -3  450  0  0  0
H  31.2331299  -7.933236407  -10.31553996  -3  450  0  0  0
H  32.1728399  -7.855356407  -7.861549958  -3  450  0  0  0
H  14.7053499  -2.528666407  -12.17055996  -3  451  0  0  0
H  15.6474499  -0.074666407  -12.25333996  -3  451  0  0  0
H  20.1098699  5.288533593  -14.02559996  -3  452  0  0  0
H  22.5638699  4.348823593  -13.94771996  -3  452  0  0  0
H  18.2547599  3.557643593  -14.70731996  -3  453  0  0  0
H  16.3997699  4.239343593  -12.97630996  -3  453  0  0  0
H  16.4776599  1.785343593  -13.91602996  -3  453  0  0  0
H  18.1720899  9.573223593  -12.08765996  -3  454  0  0  0
H  20.0319899  10.40340359  -10.42495996  -3  454  0  0  0
H  22.4859899  10.32550359  -11.36465996  -3  455  0  0  0
H  24.4238899  8.701703593  -12.08767996  -3  455  0  0  0
H  15.7180799  8.631133593  -12.17045996  -3  456  0  0  0
H  14.7758799  6.177133593  -12.25327996  -3  456  0  0  0
H  16.4776399  -10.38726641  -1.743639958  -3  457  0  0  0
H  20.7915499  -12.16452641  3.551340042  -3  458  0  0  0
H  18.3375399  -12.24730641  2.609140042  -3  458  0  0  0
H  20.1098599  -11.35875641  7.943150042  -3  459  0  0  0
H  21.7336499  -12.08174641  6.005340042  -3  459  0  0  0
H  22.5638599  -10.41906641  7.865250042  -3  459  0  0  0
H  18.2547699  -9.627756407  8.624870042  -3  460  0  0  0
H  16.3997599  -10.30943641  6.893970042  -3  460  0  0  0
H  12.1685399  -9.627636407  -2.534919958  -3  461  0  0  0
H  14.0236399  -10.30936641  -0.803929958  -3  461  0  0  0
H  12.0857499  -8.685556407  -0.080909958  -3  461  0  0  0
H  9.631769897  -6.078186407  3.551420042  -3  462  0  0  0
H  11.3627599  -7.933296407  4.233100042  -3  462  0  0  0
H  10.4230599  -7.855376407  1.779100042  -3  462  0  0  0
H  12.1685699  -8.615036407  8.624890042  -3  463  0  0  0
H  12.0857599  -9.557116407  6.170880042  -3  463  0  0  0
H  13.9457599  -10.38733641  7.833670042  -3  463  0  0  0
H  10.3134499  -1.846956407  -11.36474996  -3  464  0  0  0
H  12.2513399  -3.470756407  -12.08776996  -3  464  0  0  0
H  10.3913399  -4.300966407  -10.42506996  -3  464  0  0  0
H  9.631759897  0.008133593  -9.633729958  -3  465  0  0  0
H  11.3627699  1.863233593  -10.31541996  -3  465  0  0  0
H  9.631779897  6.094323593  -8.620969958  -3  466  0  0  0
H  10.4230699  4.317233593  -10.39328996  -3  466  0  0  0
H  34.7363999  1.753393593  7.865330042  -3  467  0  0  0
H  36.5135799  -3.541576407  3.551380042  -3  468  0  0  0
H  36.5963799  -2.599396407  6.005390042  -3  468  0  0  0
H  35.7077599  -7.933376407  4.233050042  -3  469  0  0  0
H  36.4307699  -5.995566407  2.609160042  -3  469  0  0  0
H  34.7680599  -7.855456407  1.779050042  -3  469  0  0  0
H  33.9768599  -8.615096407  6.088040042  -3  470  0  0  0
H  34.6584699  -6.884206407  7.943160042  -3  470  0  0  0
H  33.9769099  2.544653593  12.17444004  -3  471  0  0  0
H  34.6584999  0.813663593  10.31933004  -3  471  0  0  0
H  33.0347099  0.090653593  12.25722004  -3  471  0  0  0
H  28.5722899  -5.272546407  14.02948004  -3  472  0  0  0
H  26.1182899  -4.332836407  13.95160004  -3  472  0  0  0
H  30.4272999  -3.541656407  14.71120004  -3  473  0  0  0
H  32.2823899  -4.223346407  12.98019004  -3  473  0  0  0
H  32.2044999  -1.769356407  13.91991004  -3  473  0  0  0
H  30.5100699  -9.557236407  12.09154004  -3  474  0  0  0
H  28.6501699  -10.38741641  10.42884004  -3  474  0  0  0
H  24.3410699  -9.627786407  9.637550042  -3  475  0  0  0
H  26.1961699  -10.30951641  11.36854004  -3  475  0  0  0
H  24.2582799  -8.685716407  12.09156004  -3  475  0  0  0
H  32.9640799  -8.615146407  12.17435004  -3  476  0  0  0
H  33.9062899  -6.161146407  12.25717004  -3  476  0  0  0
H  34.7363799  -7.823936407  10.39715004  -3  476  0  0  0
H  26.1962499  11.37456359  14.02964004  -3  477  0  0  0
H  28.6502499  10.43485359  13.95172004  -3  477  0  0  0
H  24.3411399  9.643563593  14.71133004  -3  478  0  0  0
H  22.4860399  10.32528359  12.98034004  -3  478  0  0  0
H  36.5136199  9.643633593  2.538800042  -3  479  0  0  0
H  36.5964099  8.701553593  0.084790042  -3  479  0  0  0
H  38.3686799  4.239193593  -5.278449958  -3  480  0  0  0
H  38.2907799  1.785183593  -4.338769958  -3  480  0  0  0
H  39.0503899  6.094173593  -3.547539958  -3  481  0  0  0
H  37.3193999  7.949293593  -4.229219958  -3  481  0  0  0
H  38.2590999  7.871363593  -1.775219958  -3  481  0  0  0
H  36.4307799  6.177043593  -9.563129958  -3  482  0  0  0
H  34.7680699  4.317153593  -10.39333996  -3  482  0  0  0
H  33.9768599  0.008043593  -9.633779958  -3  483  0  0  0
H  35.7077699  1.863153593  -10.31546996  -3  483  0  0  0
H  36.4307599  -0.074766407  -8.691689958  -3  483  0  0  0
H  36.5135899  8.631033593  -8.621009958  -3  484  0  0  0
H  36.5963999  9.573113593  -6.166999958  -3  484  0  0  0
H  35.7078299  14.03554359  1.857140042  -3  485  0  0  0
H  36.4308299  12.09762359  3.480920042  -3  485  0  0  0
H  34.7681399  13.95762359  4.311140042  -3  485  0  0  0
H  33.9769299  14.71726359  0.002050042  -3  486  0  0  0
H  34.6585199  12.98627359  -1.853069958  -3  486  0  0  0
H  30.5101199  15.65942359  -6.001429958  -3  487  0  0  0
H  28.6502299  16.48962359  -4.338619958  -3  487  0  0  0
H  24.3411299  15.73002359  -3.547419958  -3  488  0  0  0
H  26.1962299  16.41173359  -5.278319958  -3  488  0  0  0
H  24.2583199  14.78785359  -6.001429958  -3  488  0  0  0
H  32.9641199  14.71732359  -6.084149958  -3  489  0  0  0
H  34.7364199  13.92599359  -4.307059958  -3  489  0  0  0
H  31.2332099  14.03564359  -7.939249958  -3  490  0  0  0
H  32.1729099  13.95776359  -10.39324996  -3  490  0  0  0
H  26.8778899  9.643793593  -12.17047996  -3  491  0  0  0
H  27.8199999  12.09779359  -12.25325996  -3  491  0  0  0
H  21.8043999  12.18059359  -9.633649958  -3  492  0  0  0
H  23.5353099  14.03569359  -10.31532996  -3  492  0  0  0
H  22.5956099  13.95777359  -7.861329958  -3  492  0  0  0
H  24.2583599  15.65928359  12.09178004  -3  493  0  0  0
H  26.1183599  16.48949359  10.42908004  -3  493  0  0  0
H  30.4273499  15.72989359  9.637770042  -3  494  0  0  0
H  28.5723599  16.41158359  11.36878004  -3  494  0  0  0
H  30.5101599  14.78766359  12.09176004  -3  494  0  0  0
H  19.5011199  8.624273593  4.612530042  -5  82  0  0  0
H  19.5011099  4.618433593  8.618290042  -5  122  0  0  0
H  19.5323199  9.615663593  4.992140042  -5  135  0  0  0
H  13.9635999  6.622663593  -3.244079958  -5  179  0  0  0
H  19.5323199  4.998023593  9.609690042  -5  194  0  0  0
H  20.0498299  12.70898359  3.248160042  -5  211  0  0  0
H  13.9635799  -3.238126407  6.616530042  -5  264  0  0  0
H  11.6400899  4.299363593  -3.244089958  -5  271  0  0  0
H  13.9634999  8.934483593  -5.555759958  -5  273  0  0  0
H  20.0498199  3.253993593  12.70298004  -5  288  0  0  0
H  20.0498399  15.02066359  5.559880042  -5  310  0  0  0
H  19.5323399  13.27653359  8.653070042  -5  311  0  0  0
H  11.6400799  -3.238096407  4.293240042  -5  380  0  0  0
H  13.9634799  -5.549846407  8.928310042  -5  382  0  0  0
H  9.328379897  4.299393593  -5.555789958  -5  388  0  0  0
H  11.6400899  8.934513593  -7.879149958  -5  391  0  0  0
H  20.0498299  5.565673593  15.01470004  -5  412  0  0  0
H  19.5323399  8.658893593  13.27063004  -5  413  0  0  0
H  21.7763499  13.27650359  10.89706004  -5  443  0  0  0
