632

C  19.49966775  5.187272824  0.021597342  -31  0  0  0  0
C  19.3406561  4.63224419  -1.251015553  -31  0  0  0  0
C  20.18609127  4.993055101  -2.301232268  -31  0  0  0  0
C  21.18779792  5.929719148  -2.092178519  -31  0  0  0  0
C  20.51815088  6.13051226  0.205399324  -31  0  0  0  0
C  21.35954792  6.524760461  -0.8361287  -31  0  0  0  0
H  18.52610062  3.93391417  -1.418568508  -44  0  0  0  0
H  20.04255662  4.567821266  -3.290949305  -44  0  0  0  0
C  18.56414365  4.744809557  1.138810423  -122  0  0  0  0
H  20.63569472  6.584859307  1.181449904  -44  0  0  0  0
C  22.44370746  7.578630499  -0.666622821  -122  0  0  0  0
H  21.82990171  6.225609978  -2.917674114  -44  0  0  0  0
C  22.32146318  8.401200783  0.616149402  -121  0  0  0  0
H  22.32952297  8.275305591  -1.508490969  -112  0  0  0  0
C  23.83724914  6.944049696  -0.783257612  -121  0  0  0  0
H  21.33990098  8.878482124  0.70100351  -111  0  0  0  0
H  23.08368626  9.185010735  0.635395443  -111  0  0  0  0
H  22.47473079  7.787183306  1.510648866  -111  0  0  0  0
H  23.99641967  6.193529887  -0.002895648  -111  0  0  0  0
H  24.61476448  7.708045433  -0.685831454  -111  0  0  0  0
H  23.97067787  6.445010213  -1.74901314  -111  0  0  0  0
C  18.3951969  5.782880753  2.247916104  -121  0  0  0  0
C  19.01354694  3.397755321  1.730441146  -121  0  0  0  0
H  17.57998509  4.590258215  0.676213054  -112  0  0  0  0
H  18.1316053  6.766149089  1.845825339  -111  0  0  0  0
H  17.60319682  5.471759663  2.935818319  -111  0  0  0  0
H  19.31055035  5.889590875  2.837823967  -111  0  0  0  0
H  20.01200968  3.487454598  2.174002677  -111  0  0  0  0
H  18.32082073  3.072437804  2.513337129  -111  0  0  0  0
H  19.03962325  2.611379534  0.966361525  -111  0  0  0  0
H  20.98965156  3.464187022  -0.348610904  0  33  0  0  0
Al  23.08910536  3.088016588  0.943128439  -2  35  33  36  34
O  21.64048197  2.739324205  -0.178029532  -1  31  32  0  0
O  23.35976518  1.540341979  1.655131212  -1  32  45  0  0
O  24.36797553  3.605631734  -0.051640219  -1  37  32  0  0
O  22.44229855  4.30218785  1.942451542  -1  32  49  0  0
Si  25.26213108  3.081344825  -1.266018294  -2  38  54  53  35
O  24.3635728  2.583108795  -2.565860925  -1  39  37  0  0
Si  23.48255838  1.313286907  -3.061149015  -2  63  62  38  40
O  22.5071764  0.790002013  -1.818917103  -1  39  41  0  0
Si  21.26840193  1.255450678  -0.891525795  -2  40  50  42  0
O  20.90490465  0.158447966  0.216694831  -1  41  43  0  0
Si  21.31492229  -0.916356947  1.400685773  -2  42  64  65  44
O  21.73515618  -0.185646524  2.791033603  -1  43  45  0  0
Si  23.0186791  0.814167034  3.050718897  -2  34  44  52  46
O  22.61187679  1.836875904  4.256113954  -1  45  47  0  0
Si  23.07085969  3.078336261  5.217423358  -2  48  46  72  73
O  23.64227343  4.34294119  4.350717576  -1  49  47  0  0
Si  23.05431833  5.232176071  3.095814919  -2  36  56  55  48
O  19.97580844  1.688303059  -1.746160893  -1  51  41  0  0
Si  19.11513041  1.272700849  -3.0683143  -2  67  66  68  50
O  24.25906054  -0.082134021  3.480388692  -1  45  57  0  0
O  26.19696054  1.855765979  -0.804311308  -1  58  37  0  0
O  26.11906054  4.309765979  -1.744011308  -1  59  37  0  0
O  21.80516054  6.086865979  3.550988692  -1  49  60  0  0
O  24.25906054  6.169665979  2.608788692  -1  61  49  0  0
Si  25.22806054  -1.292034021  3.047088692  -23  70  69  52  71
Si  27.38746054  0.886865979  -1.291211308  -23  74  76  53  75
Si  27.38256054  5.200765979  -1.291211308  -23  77  54  78  79
Si  21.29626054  6.973065979  4.794988692  -23  55  82  80  81
Si  25.22806054  7.379665979  3.042188692  -23  85  56  83  84
O  24.42466054  0.083465979  -3.477411308  -1  86  39  0  0
O  22.56466054  1.746165979  -4.307611308  -1  87  39  0  0
O  22.48676054  -1.854434021  0.807288692  -1  88  43  0  0
O  20.03276054  -1.776534021  1.746988692  -1  89  43  0  0
O  18.25556054  2.537465979  -3.548011308  -1  90  51  0  0
O  20.11066054  0.806465979  -4.229711308  -1  87  51  0  0
O  18.17286054  0.083465979  -2.605811308  -1  51  91  0  0
O  24.34186054  -2.536134021  2.538288692  -1  88  57  0  0
O  26.19696054  -0.805134021  1.856588692  -1  92  57  0  0
O  26.11906054  -1.744834021  4.310588692  -1  57  93  0  0
O  21.80516054  3.550165979  6.087688692  -1  47  94  0  0
O  24.25906054  2.607965979  6.170488692  -1  47  95  0  0
O  26.87866054  0.000665979  -2.535311308  -1  86  58  0  0
O  27.82076054  -0.082134021  -0.081311308  -1  58  92  0  0
O  28.65096054  1.777865979  -1.744011308  -1  58  96  0  0
O  27.89136054  6.086865979  -2.535311308  -1  97  59  0  0
O  28.57306054  4.231865979  -0.804311308  -1  59  96  0  0
O  26.94916054  6.169665979  -0.081311308  -1  59  98  0  0
O  22.48676054  7.941965979  5.281888692  -1  99  60  0  0
O  20.86296054  6.004165979  6.004988692  -1  60  94  0  0
O  20.03276054  7.864065979  4.342188692  -1  614  60  0  0
O  24.34186054  8.623665979  3.550988692  -1  61  99  0  0
O  26.19696054  6.892765979  4.232688692  -1  61  100  0  0
O  26.11906054  7.832465979  1.778688692  -1  98  61  0  0
Si  25.63456054  -0.885534021  -3.044111308  -23  102  62  74  101
Si  21.30116054  1.293365979  -5.198611308  -22  104  103  63  67
Si  23.45566054  -3.044934021  1.294188692  -23  105  64  106  69
Si  19.14176054  -3.040034021  1.294188692  -23  109  108  65  107
Si  17.36946054  3.046265979  -4.792011308  -23  111  110  112  66
Si  16.96286054  -0.885534021  -3.039211308  -23  114  113  68  115
Si  27.38746054  -1.292034021  0.887688692  -2  75  116  117  70
Si  27.38256054  -1.292034021  5.201588692  -2  119  71  118  120
Si  21.29626054  4.794165979  6.973888692  -23  81  72  122  121
Si  25.22806054  3.041365979  7.380488692  -23  73  124  125  123
Si  29.54196054  3.041365979  -1.291211308  -2  126  76  78  127
Si  29.13536054  6.973065979  -3.044111308  -2  130  129  77  128
Si  27.38256054  7.379665979  0.887688692  -2  79  131  85  132
Si  23.45566054  9.132465979  4.794988692  -2  83  134  80  133
Si  27.38746054  7.379665979  5.201588692  -2  84  138  136  137
O  25.14766054  -1.854434021  -1.853611308  -1  86  139  0  0
O  26.08736054  -1.776534021  -4.307611308  -1  140  86  0  0
O  20.79236054  2.537465979  -6.084711308  -1  141  87  0  0
O  21.73446054  0.083465979  -6.167511308  -1  142  87  0  0
O  24.42466054  -3.478234021  0.084288692  -1  139  88  0  0
O  22.56466054  -4.308434021  1.746988692  -1  88  143  0  0
O  18.25556054  -3.548834021  2.538288692  -1  89  144  0  0
O  20.11066054  -4.230534021  0.807288692  -1  89  143  0  0
O  18.17286054  -2.606634021  0.084288692  -1  145  89  0  0
O  16.40056054  1.855765979  -5.278911308  -1  90  146  0  0
O  18.33836054  3.479565979  -6.002011308  -1  141  90  0  0
O  16.47846054  4.309765979  -4.339211308  -1  90  147  0  0
O  15.71886054  0.000665979  -3.548011308  -1  146  91  0  0
O  17.44976054  -1.854434021  -4.229711308  -1  148  91  0  0
O  16.51006054  -1.776534021  -1.775711308  -1  91  145  0  0
O  26.87866054  -2.536134021  0.001488692  -1  139  92  0  0
O  28.65096054  -1.744834021  1.778688692  -1  92  149  0  0
O  27.89136054  -2.536134021  6.087688692  -1  93  150  0  0
O  28.57306054  -0.805134021  4.232688692  -1  149  93  0  0
O  26.94916054  -0.082134021  6.170488692  -1  93  151  0  0
O  22.48676054  5.281065979  7.942788692  -1  94  152  0  0
O  20.03276054  4.341365979  7.864888692  -1  94  615  0  0
O  24.34186054  3.550165979  8.624488692  -1  95  152  0  0
O  26.19696054  4.231865979  6.893588692  -1  153  95  0  0
O  26.11906054  1.777865979  7.833288692  -1  95  151  0  0
O  30.42806054  3.550165979  -2.535311308  -1  154  96  0  0
O  30.51086054  2.607965979  -0.081311308  -1  96  155  0  0
O  29.62226054  7.941965979  -1.853611308  -1  97  156  0  0
O  30.34536054  6.004165979  -3.477411308  -1  154  97  0  0
O  28.68256054  7.864065979  -4.307611308  -1  157  97  0  0
O  27.89136054  8.623665979  0.001488692  -1  156  98  0  0
O  28.57306054  6.892765979  1.856588692  -1  98  158  0  0
O  24.42466054  9.565765979  6.004988692  -1  99  159  0  0
O  22.56466054  10.39596598  4.342188692  -1  160  99  0  0
O  20.11066054  10.31806598  5.281888692  -1  160  616  0  0
O  26.87866054  8.623665979  6.087688692  -1  100  159  0  0
O  27.82076054  6.169665979  6.170488692  -1  100  153  0  0
O  28.65096054  7.832465979  4.310588692  -1  158  100  0  0
Si  25.63456054  -3.044934021  -0.884711308  -2  101  161  116  105
Si  25.63456054  -3.040034021  -5.198611308  -2  164  162  102  163
Si  19.54836054  3.046265979  -6.970911308  -2  165  166  103  111
Si  21.30116054  -0.885534021  -7.377511308  -2  167  169  168  104
Si  21.30116054  -5.199434021  1.294188692  -2  171  108  106  170
Si  17.36946054  -4.792834021  3.047088692  -2  172  107  173  174
Si  16.96286054  -3.040034021  -0.884711308  -2  176  115  175  109
Si  15.21006054  0.886865979  -4.792011308  -2  177  110  178  113
Si  15.21496054  5.200765979  -4.792011308  -2  181  180  112  179
Si  16.96286054  -3.044934021  -5.198611308  -2  183  182  184  114
Si  29.54196054  -1.292034021  3.042188692  -2  117  186  185  119
Si  29.13536054  -3.044934021  6.973888692  -2  188  118  189  187
Si  27.38256054  0.886865979  7.380488692  -2  120  191  125  190
Si  23.45566054  4.794165979  9.133288692  -2  121  123  192  193
Si  27.38746054  5.200765979  7.380488692  -2  137  124  196  195
Si  31.31426054  4.794165979  -3.044111308  -2  198  129  126  197
Si  31.72086054  3.041365979  0.887688692  -2  127  199  201  200
Si  29.13536054  9.132465979  -0.884711308  -2  128  203  131  202
Si  29.13536054  9.127565979  -5.198611308  -2  206  204  130  205
Si  29.54196054  7.379665979  3.047088692  -2  132  207  208  138
Si  25.63456054  9.132465979  6.973888692  -2  133  136  210  209
Si  21.30116054  11.28696598  4.794988692  -2  211  134  135  212
O  26.08736054  -4.308434021  -1.775711308  -1  213  139  0  0
O  26.87866054  -3.548834021  -6.084711308  -1  214  140  0  0
O  25.14766054  -4.230534021  -4.229711308  -1  140  213  0  0
O  24.42466054  -2.606634021  -6.167511308  -1  215  140  0  0
O  19.06146054  1.855765979  -7.939811308  -1  216  141  0  0
O  20.00116054  4.309765979  -7.861911308  -1  217  141  0  0
O  20.79236054  0.000665979  -8.621511308  -1  216  142  0  0
O  20.11066054  -1.854434021  -6.890611308  -1  142  218  0  0
O  22.56466054  -1.776534021  -7.830311308  -1  215  142  0  0
O  20.79236054  -6.085534021  2.538288692  -1  143  219  0  0
O  21.73446054  -6.168334021  0.084288692  -1  220  143  0  0
O  16.40056054  -5.279734021  1.856588692  -1  221  144  0  0
O  18.33836054  -6.002834021  3.480388692  -1  144  219  0  0
O  16.47846054  -4.340034021  4.310588692  -1  144  222  0  0
O  15.71886054  -3.548834021  0.001488692  -1  145  221  0  0
O  17.44976054  -4.230534021  -1.853611308  -1  223  145  0  0
O  14.77666054  -0.082134021  -6.002011308  -1  224  146  0  0
O  13.94656054  1.777865979  -4.339211308  -1  146  225  0  0
O  14.70616054  6.086865979  -3.548011308  -1  147  617  0  0
O  14.02446054  4.231865979  -5.278911308  -1  225  147  0  0
O  15.64826054  6.169665979  -6.002011308  -1  226  147  0  0
O  15.71886054  -2.536134021  -6.084711308  -1  224  148  0  0
O  18.17286054  -3.478234021  -6.167511308  -1  218  148  0  0
O  16.51006054  -4.308434021  -4.307611308  -1  148  223  0  0
O  30.42806054  -2.536134021  3.550988692  -1  149  227  0  0
O  30.51086054  -0.082134021  2.608788692  -1  149  228  0  0
O  29.62226054  -1.854434021  7.942788692  -1  150  229  0  0
O  30.34536054  -3.478234021  6.004988692  -1  227  150  0  0
O  28.68256054  -4.308434021  7.864888692  -1  150  230  0  0
O  27.89136054  0.000665979  8.624488692  -1  151  229  0  0
O  28.57306054  1.855765979  6.893588692  -1  231  151  0  0
O  24.42466054  6.004165979  9.566588692  -1  152  232  0  0
O  22.56466054  4.341365979  10.3967887  -1  152  233  0  0
O  20.11066054  5.281065979  10.3188887  -1  618  233  0  0
O  26.87866054  6.086865979  8.624488692  -1  153  232  0  0
O  28.65096054  4.309765979  7.833288692  -1  153  231  0  0
O  32.28316054  5.281065979  -1.853611308  -1  154  234  0  0
O  32.20526054  4.341365979  -4.307611308  -1  235  154  0  0
O  32.96486054  3.550165979  0.001488692  -1  234  155  0  0
O  31.23396054  4.231865979  1.856588692  -1  155  236  0  0
O  32.17366054  1.777865979  1.778688692  -1  155  228  0  0
O  30.34536054  9.565765979  0.084288692  -1  156  237  0  0
O  28.68256054  10.39596598  -1.775711308  -1  238  156  0  0
O  27.89136054  9.636365979  -6.084711308  -1  239  157  0  0
O  29.62226054  10.31806598  -4.229711308  -1  157  238  0  0
O  30.34536054  8.694265979  -6.167511308  -1  240  157  0  0
O  30.42806054  8.623665979  2.538288692  -1  237  158  0  0
O  30.51086054  6.169665979  3.480388692  -1  158  236  0  0
O  25.14766054  7.941965979  7.942788692  -1  159  232  0  0
O  26.08736054  10.39596598  7.864888692  -1  159  241  0  0
O  20.79236054  12.17316598  3.550988692  -1  619  160  0  0
O  21.73446054  12.25596598  6.004988692  -1  160  242  0  0
Si  25.63456054  -5.199434021  -3.039211308  -2  163  243  244  161
Si  27.38746054  -4.792834021  -6.970911308  -2  245  247  162  246
Si  23.45566054  -3.040034021  -7.377511308  -2  248  169  249  164
Si  19.54836054  0.886865979  -9.130311308  -2  251  250  167  165
Si  19.54836054  5.200765979  -9.125411308  -2  253  252  254  166
Si  19.14176054  -3.044934021  -7.377511308  -2  255  256  168  183
Si  19.54836054  -6.971734021  3.047088692  -2  257  170  173  258
Si  21.30116054  -7.378334021  -0.884711308  -2  260  261  259  171
Si  15.21006054  -4.792834021  0.887688692  -2  262  175  263  172
Si  15.21496054  -4.792834021  5.201588692  -2  265  174  264  266
Si  16.96286054  -5.199434021  -3.044111308  -2  184  268  267  176
Si  15.21006054  -1.292034021  -6.970911308  -2  269  270  182  177
Si  13.05556054  3.041365979  -4.792011308  -2  272  180  178  271
Si  15.21496054  7.379665979  -6.970911308  -2  274  275  273  181
Si  31.31426054  -3.044934021  4.794988692  -2  185  277  276  188
Si  31.72086054  0.886865979  3.042188692  -2  201  186  278  279
Si  29.13536054  -0.885534021  9.133288692  -2  187  190  280  281
Si  29.13536054  -5.199434021  9.128388692  -2  189  284  282  283
Si  29.54196054  3.046265979  7.380488692  -2  286  191  196  285
Si  25.63456054  6.973065979  9.133288692  -2  209  195  192  287
Si  21.30116054  4.794165979  11.2877887  -2  194  193  288  289
Si  33.47366054  4.794165979  -0.884711308  -2  197  291  199  290
Si  33.46876054  4.794165979  -5.198611308  -2  294  292  198  293
Si  31.72086054  5.200765979  3.047088692  -2  200  295  208  296
Si  31.31426054  9.132465979  1.294188692  -2  202  297  298  207
Si  29.13536054  11.28696598  -3.039211308  -2  205  299  300  203
Si  27.38256054  10.88046598  -6.970911308  -2  301  303  204  302
Si  31.31426054  9.127565979  -7.377511308  -2  304  306  305  206
Si  25.63456054  11.28696598  9.128388692  -2  210  309  307  308
Si  21.30116054  13.46586598  6.973888692  -2  212  310  312  311
O  26.87866054  -6.085534021  -3.548011308  -1  313  213  0  0
O  24.42466054  -6.168334021  -2.605811308  -1  314  213  0  0
O  26.19696054  -5.279734021  -7.939811308  -1  315  214  0  0
O  27.82076054  -6.002834021  -6.002011308  -1  214  313  0  0
O  28.65096054  -4.340034021  -7.861911308  -1  316  214  0  0
O  24.34186054  -3.548834021  -8.621511308  -1  315  215  0  0
O  22.48676054  -4.230534021  -6.890611308  -1  215  317  0  0
O  18.33836054  -0.082134021  -9.563611308  -1  216  318  0  0
O  20.00116054  1.777865979  -10.3938113  -1  319  216  0  0
O  20.79236054  6.086865979  -9.634211308  -1  320  217  0  0
O  19.06146054  4.231865979  -10.3159113  -1  319  217  0  0
O  18.33836054  6.169665979  -8.692111308  -1  321  217  0  0
O  18.25556054  -2.536134021  -8.621511308  -1  318  218  0  0
O  20.03276054  -4.308434021  -7.830311308  -1  317  218  0  0
O  19.06146054  -7.940634021  1.856588692  -1  322  219  0  0
O  20.00116054  -7.862734021  4.310588692  -1  219  323  0  0
O  20.79236054  -8.622334021  0.001488692  -1  220  322  0  0
O  20.11066054  -6.891434021  -1.853611308  -1  324  220  0  0
O  22.56466054  -7.831134021  -1.775711308  -1  314  220  0  0
O  14.77666054  -6.002834021  -0.081311308  -1  325  221  0  0
O  13.94656054  -4.340034021  1.778688692  -1  221  326  0  0
O  14.70616054  -3.548834021  6.087688692  -1  222  620  0  0
O  14.02446054  -5.279734021  4.232688692  -1  326  222  0  0
O  15.64826054  -6.002834021  6.170488692  -1  222  327  0  0
O  15.71886054  -6.085534021  -2.535311308  -1  223  325  0  0
O  18.17286054  -6.168334021  -3.477411308  -1  223  324  0  0
O  16.40056054  -0.805134021  -7.939811308  -1  318  224  0  0
O  13.94656054  -1.744834021  -7.861911308  -1  328  224  0  0
O  12.16936054  3.550165979  -3.548011308  -1  225  621  0  0
O  12.08656054  2.607965979  -6.002011308  -1  329  225  0  0
O  14.70616054  8.623665979  -6.084711308  -1  226  622  0  0
O  14.02446054  6.892765979  -7.939811308  -1  330  226  0  0
O  16.47846054  7.832465979  -7.861911308  -1  321  226  0  0
O  32.28316054  -1.854434021  5.281888692  -1  331  227  0  0
O  32.20526054  -4.308434021  4.342188692  -1  332  227  0  0
O  32.96486054  0.000665979  3.550988692  -1  228  331  0  0
O  31.23396054  1.855765979  4.232688692  -1  228  333  0  0
O  30.34536054  0.083465979  9.566588692  -1  229  334  0  0
O  28.68256054  -1.776534021  10.3967887  -1  229  335  0  0
O  27.89136054  -6.085534021  9.637188692  -1  230  336  0  0
O  29.62226054  -4.230534021  10.3188887  -1  230  335  0  0
O  30.34536054  -6.168334021  8.695088692  -1  230  337  0  0
O  30.42806054  2.537465979  8.624488692  -1  231  334  0  0
O  30.51086054  3.479565979  6.170488692  -1  333  231  0  0
O  26.08736054  7.864065979  10.3967887  -1  232  338  0  0
O  20.79236054  3.550165979  12.1739887  -1  233  623  0  0
O  21.73446054  6.004165979  12.2567887  -1  233  339  0  0
O  33.90706054  6.004165979  0.084288692  -1  234  340  0  0
O  34.73716054  4.341365979  -1.775711308  -1  341  234  0  0
O  33.97766054  3.550165979  -6.084711308  -1  342  235  0  0
O  34.65926054  5.281065979  -4.229711308  -1  235  341  0  0
O  33.03546054  6.004165979  -6.167511308  -1  343  235  0  0
O  32.96486054  6.086865979  2.538288692  -1  340  236  0  0
O  32.17366054  4.309765979  4.310588692  -1  236  333  0  0
O  32.28316054  7.941965979  0.807288692  -1  237  340  0  0
O  32.20526054  10.39596598  1.746988692  -1  237  344  0  0
O  27.89136054  12.17316598  -3.548011308  -1  345  238  0  0
O  30.34536054  12.25596598  -2.605811308  -1  238  346  0  0
O  28.57306054  11.36736598  -7.939811308  -1  347  239  0  0
O  26.94916054  12.09036598  -6.002011308  -1  239  345  0  0
O  26.11906054  10.42766598  -7.861911308  -1  348  239  0  0
O  30.42806054  9.636365979  -8.621511308  -1  347  240  0  0
O  32.28316054  10.31806598  -6.890611308  -1  349  240  0  0
O  32.20526054  7.864065979  -7.830311308  -1  343  240  0  0
O  26.87866054  12.17316598  9.637188692  -1  241  350  0  0
O  25.14766054  10.31806598  10.3188887  -1  241  338  0  0
O  24.42466054  12.25596598  8.695088692  -1  351  241  0  0
O  20.79236054  14.70996598  6.087688692  -1  624  242  0  0
O  20.11066054  12.97896598  7.942788692  -1  242  625  0  0
O  22.56466054  13.91866598  7.864888692  -1  242  351  0  0
Si  27.38746054  -6.971734021  -4.792011308  -2  246  352  353  243
Si  23.45566054  -7.378334021  -3.039211308  -2  355  354  244  261
Si  25.22806054  -4.792834021  -9.130311308  -2  357  356  248  245
Si  29.54196054  -4.792834021  -9.125411308  -2  359  358  360  247
Si  21.29626054  -5.199434021  -7.377511308  -2  361  256  249  362
Si  17.36946054  -1.292034021  -9.130311308  -2  363  250  255  269
Si  19.54836054  3.041365979  -11.2848113  -2  365  364  251  253
Si  21.30116054  6.973065979  -10.8783113  -2  367  366  368  252
Si  17.36946054  7.379665979  -9.125411308  -2  370  369  254  275
Si  19.54836054  -9.131134021  0.887688692  -2  371  259  372  257
Si  19.54836054  -9.126234021  5.201588692  -2  374  258  373  375
Si  19.14176054  -7.378334021  -3.044111308  -2  377  268  376  260
Si  15.21006054  -6.971734021  -1.291211308  -2  267  379  378  262
Si  13.05556054  -4.792834021  3.042188692  -2  263  381  380  265
Si  15.21496054  -6.971734021  7.380488692  -2  266  383  384  382
Si  13.05556054  -1.292034021  -9.125411308  -2  386  385  387  270
Si  10.87666054  3.041365979  -6.970911308  -2  389  390  388  272
Si  13.05556054  7.379665979  -9.130311308  -2  393  392  391  274
Si  33.47366054  -0.885534021  4.794988692  -2  278  395  276  394
Si  33.46876054  -5.199434021  4.794988692  -2  396  277  397  398
Si  31.72086054  3.046265979  5.201588692  -2  279  296  399  286
Si  31.31426054  1.293365979  9.133288692  -2  400  285  280  401
Si  29.13536054  -3.040034021  11.2877887  -2  283  281  402  403
Si  27.38256054  -6.971734021  10.8812887  -2  282  406  404  405
Si  31.31426054  -7.378334021  9.128388692  -2  409  284  407  408
Si  25.63456054  9.127565979  11.2877887  -2  308  287  410  411
Si  21.30116054  6.973065979  13.4666887  -2  289  413  414  412
Si  33.47366054  6.973065979  1.294188692  -2  290  297  415  295
Si  35.62816054  4.794165979  -3.039211308  -2  293  416  417  291
Si  35.22166054  3.041365979  -6.970911308  -2  418  420  292  419
Si  33.46876054  6.973065979  -7.377511308  -2  421  306  422  294
Si  33.46876054  11.28696598  1.294188692  -2  425  424  298  423
Si  27.38256054  13.05936598  -4.792011308  -2  302  426  427  299
Si  31.31426054  13.46586598  -3.039211308  -2  429  428  300  430
Si  29.54196054  10.88046598  -9.130311308  -2  432  431  304  301
Si  25.22806054  10.88046598  -9.125411308  -2  434  433  435  303
Si  33.47366054  11.28696598  -7.377511308  -2  436  438  305  437
Si  27.38746054  13.05936598  10.8812887  -2  307  441  439  440
Si  23.45566054  13.46586598  9.128388692  -2  312  309  442  443
O  26.19696054  -7.940634021  -5.278911308  -1  444  313  0  0
O  28.65096054  -7.862734021  -4.339211308  -1  445  313  0  0
O  24.34186054  -8.622334021  -3.548011308  -1  444  314  0  0
O  22.48676054  -6.891434021  -4.229711308  -1  446  314  0  0
O  24.25906054  -6.002834021  -9.563611308  -1  315  447  0  0
O  26.11906054  -4.340034021  -10.3938113  -1  448  315  0  0
O  30.42806054  -3.548834021  -9.634211308  -1  449  316  0  0
O  28.57306054  -5.279734021  -10.3159113  -1  448  316  0  0
O  30.51086054  -6.002834021  -8.692111308  -1  450  316  0  0
O  21.80516054  -6.085534021  -8.621511308  -1  447  317  0  0
O  20.86296054  -6.168334021  -6.167511308  -1  317  446  0  0
O  16.47846054  -1.744834021  -10.3938113  -1  451  318  0  0
O  20.79236054  3.550165979  -12.1710113  -1  452  319  0  0
O  18.33836054  2.607965979  -12.2538113  -1  453  319  0  0
O  20.11066054  7.941965979  -11.3652113  -1  320  454  0  0
O  21.73446054  6.004165979  -12.0882113  -1  452  320  0  0
O  22.56466054  7.864065979  -10.4255113  -1  320  455  0  0
O  18.25556054  8.623665979  -9.634211308  -1  454  321  0  0
O  16.40056054  6.892765979  -10.3159113  -1  456  321  0  0
O  18.33836054  -9.564434021  -0.081311308  -1  457  322  0  0
O  20.00116054  -10.39463402  1.778688692  -1  322  458  0  0
O  20.79236054  -9.635034021  6.087688692  -1  323  459  0  0
O  19.06146054  -10.31673402  4.232688692  -1  458  323  0  0
O  18.33836054  -8.692934021  6.170488692  -1  323  460  0  0
O  18.25556054  -8.622334021  -2.535311308  -1  324  457  0  0
O  20.03276054  -7.831134021  -4.307611308  -1  446  324  0  0
O  16.40056054  -7.940634021  -0.804311308  -1  457  325  0  0
O  13.94656054  -7.862734021  -1.744011308  -1  325  461  0  0
O  12.16936054  -3.548834021  3.550988692  -1  326  626  0  0
O  12.08656054  -6.002834021  2.608788692  -1  326  462  0  0
O  14.70616054  -6.085534021  8.624488692  -1  327  627  0  0
O  14.02446054  -7.940634021  6.893588692  -1  327  463  0  0
O  16.47846054  -7.862734021  7.833288692  -1  460  327  0  0
O  12.16936054  -2.536134021  -9.634211308  -1  464  328  0  0
O  14.02446054  -0.805134021  -10.3159113  -1  451  328  0  0
O  12.08656054  -0.082134021  -8.692111308  -1  465  328  0  0
O  9.632560546  3.550165979  -6.084711308  -1  329  628  0  0
O  11.36356054  4.231865979  -7.939811308  -1  466  329  0  0
O  10.42386054  1.777865979  -7.861911308  -1  465  329  0  0
O  12.16936054  8.623665979  -8.621511308  -1  330  629  0  0
O  12.08656054  6.169665979  -9.563611308  -1  330  466  0  0
O  13.94656054  7.832465979  -10.3938113  -1  456  330  0  0
O  33.90706054  0.083465979  6.004988692  -1  331  467  0  0
O  34.73716054  -1.776534021  4.342188692  -1  468  331  0  0
O  33.97766054  -6.085534021  3.550988692  -1  469  332  0  0
O  34.65926054  -4.230534021  5.281888692  -1  468  332  0  0
O  33.03546054  -6.168334021  6.004988692  -1  332  470  0  0
O  32.96486054  2.537465979  6.087688692  -1  333  467  0  0
O  32.28316054  0.806465979  7.942788692  -1  467  334  0  0
O  32.20526054  1.746165979  10.3967887  -1  334  471  0  0
O  27.89136054  -3.548834021  12.1739887  -1  335  472  0  0
O  30.34536054  -2.606634021  12.2567887  -1  335  473  0  0
O  28.57306054  -7.940634021  11.3681887  -1  336  474  0  0
O  26.94916054  -6.002834021  12.0911887  -1  336  472  0  0
O  26.11906054  -7.862734021  10.4284887  -1  336  475  0  0
O  30.42806054  -8.622334021  9.637188692  -1  337  474  0  0
O  32.28316054  -6.891434021  10.3188887  -1  337  476  0  0
O  32.20526054  -7.831134021  7.864888692  -1  470  337  0  0
O  26.87866054  9.636365979  12.1739887  -1  338  477  0  0
O  24.42466054  8.694265979  12.2567887  -1  338  478  0  0
O  20.79236054  6.086865979  14.7107887  -1  339  630  0  0
O  20.11066054  7.941965979  12.9797887  -1  631  339  0  0
O  22.56466054  7.864065979  13.9194887  -1  478  339  0  0
O  34.73716054  7.864065979  1.746988692  -1  479  340  0  0
O  36.51436054  3.550165979  -3.548011308  -1  480  341  0  0
O  36.59716054  6.004165979  -2.605811308  -1  481  341  0  0
O  35.70856054  4.231865979  -7.939811308  -1  482  342  0  0
O  36.43156054  2.607965979  -6.002011308  -1  342  480  0  0
O  34.76886054  1.777865979  -7.861911308  -1  483  342  0  0
O  33.97766054  6.086865979  -8.621511308  -1  482  343  0  0
O  34.65926054  7.941965979  -6.890611308  -1  484  343  0  0
O  33.97766054  12.17316598  2.538288692  -1  344  485  0  0
O  34.65926054  10.31806598  0.807288692  -1  479  344  0  0
O  33.03546054  12.25596598  0.084288692  -1  486  344  0  0
O  28.57306054  14.02826598  -5.278911308  -1  345  487  0  0
O  26.11906054  13.95036598  -4.339211308  -1  345  488  0  0
O  30.42806054  14.70996598  -3.548011308  -1  487  346  0  0
O  32.28316054  12.97896598  -4.229711308  -1  489  346  0  0
O  32.20526054  13.91866598  -1.775711308  -1  346  486  0  0
O  30.51086054  12.09036598  -9.563611308  -1  347  490  0  0
O  28.65096054  10.42766598  -10.3938113  -1  491  347  0  0
O  24.34186054  9.636365979  -9.634211308  -1  455  348  0  0
O  26.19696054  11.36736598  -10.3159113  -1  491  348  0  0
O  24.25906054  12.09036598  -8.692111308  -1  348  492  0  0
O  32.96486054  12.17316598  -8.621511308  -1  490  349  0  0
O  33.90706054  12.25596598  -6.167511308  -1  349  489  0  0
O  34.73716054  10.39596598  -7.830311308  -1  484  349  0  0
O  26.19696054  14.02826598  11.3681887  -1  350  493  0  0
O  27.82076054  12.09036598  12.0911887  -1  350  477  0  0
O  28.65096054  13.95036598  10.4284887  -1  350  494  0  0
O  24.34186054  14.70996598  9.637188692  -1  351  493  0  0
O  22.48676054  12.97896598  10.3188887  -1  351  632  0  0
Si  25.22806054  -9.131134021  -4.792011308  -2  495  352  496  354
Si  29.54196054  -9.126234021  -4.792011308  -2  499  498  353  497
Si  21.29626054  -7.378334021  -5.198611308  -2  362  500  377  355
Si  23.04916054  -6.971734021  -9.130311308  -2  502  356  361  501
Si  27.38256054  -4.792834021  -11.2848113  -2  504  503  357  359
Si  31.31426054  -3.040034021  -10.8783113  -2  506  505  507  358
Si  31.72086054  -6.971734021  -9.125411308  -2  509  508  360  510
Si  15.21496054  -1.292034021  -11.2848113  -2  512  511  363  386
Si  21.30116054  4.794165979  -13.0572113  -2  513  514  364  367
Si  17.36946054  3.041365979  -13.4637113  -2  515  517  516  365
Si  19.14176054  9.132465979  -10.8783113  -2  518  366  519  369
Si  23.45566054  9.127565979  -10.8783113  -2  521  520  368  433
Si  15.21006054  7.379665979  -11.2848113  -2  523  522  393  370
Si  17.36946054  -9.131134021  -1.291211308  -2  376  524  378  371
Si  19.54836054  -11.28563402  3.042188692  -2  372  526  525  374
Si  21.30116054  -10.87913402  6.973888692  -2  528  373  529  527
Si  17.36946054  -9.126234021  7.380488692  -2  375  531  384  530
Si  13.05556054  -9.126234021  -1.291211308  -2  532  379  533  534
Si  10.87666054  -6.971734021  3.042188692  -2  537  381  535  536
Si  13.05556054  -9.131134021  7.380488692  -2  539  383  540  538
Si  11.28316054  -3.044934021  -10.8783113  -2  542  541  543  385
Si  10.87666054  0.886865979  -9.125411308  -2  545  544  387  390
Si  10.87666054  5.200765979  -9.130311308  -2  547  392  546  389
Si  33.47366054  1.293365979  6.973888692  -2  394  399  548  400
Si  35.62816054  -3.040034021  4.794988692  -2  549  395  397  550
Si  35.22166054  -6.971734021  3.042188692  -2  553  552  396  551
Si  33.46876054  -7.378334021  6.973888692  -2  398  554  409  555
Si  33.46876054  1.293365979  11.2877887  -2  557  401  556  558
Si  27.38256054  -4.792834021  13.0601887  -2  405  402  560  559
Si  31.31426054  -3.040034021  13.4666887  -2  403  562  563  561
Si  29.54196054  -9.131134021  10.8812887  -2  407  565  404  564
Si  25.22806054  -9.126234021  10.8812887  -2  566  406  567  568
Si  33.47366054  -7.378334021  11.2877887  -2  408  571  569  570
Si  27.38746054  10.88046598  13.0601887  -2  440  410  573  572
Si  23.45566054  9.127565979  13.4666887  -2  411  575  414  574
Si  35.62816054  9.127565979  1.294188692  -2  577  424  415  576
Si  37.40056054  3.041365979  -4.792011308  -2  419  578  579  416
Si  37.80706054  6.973065979  -3.039211308  -2  581  580  417  582
Si  35.22166054  5.200765979  -9.130311308  -2  584  583  421  418
Si  35.22166054  0.886865979  -9.125411308  -2  586  585  587  420
Si  35.62816054  9.132465979  -7.377511308  -2  588  438  422  589
Si  35.22166054  13.05936598  3.047088692  -2  590  423  591  592
Si  33.46876054  13.46586598  -0.884711308  -2  594  430  593  425
Si  29.54196054  15.21876598  -4.792011308  -2  595  426  596  428
Si  25.22806054  15.21386598  -4.792011308  -2  599  598  427  597
Si  33.47366054  13.46586598  -5.198611308  -2  437  600  601  429
Si  31.72086054  13.05936598  -9.130311308  -2  603  431  436  602
Si  27.38746054  10.88046598  -11.2848113  -2  605  604  432  434
Si  23.04916054  13.05936598  -9.125411308  -2  607  606  435  608
Si  25.22806054  15.21876598  10.8812887  -2  442  610  439  609
Si  29.54196054  15.21386598  10.8812887  -2  611  441  612  613
H  24.25906054  -9.564434021  -6.002011308  -3  444  0  0  0
H  26.11906054  -10.39463402  -4.339211308  -3  444  0  0  0
H  30.42806054  -9.635034021  -3.548011308  -3  445  0  0  0
H  28.57306054  -10.31673402  -5.278911308  -3  445  0  0  0
H  30.51086054  -8.692934021  -6.002011308  -3  445  0  0  0
H  21.80516054  -8.622334021  -6.084711308  -3  446  0  0  0
H  23.53606054  -7.940634021  -7.939811308  -3  447  0  0  0
H  22.59636054  -7.862734021  -10.3938113  -3  447  0  0  0
H  27.89136054  -3.548834021  -12.1710113  -3  448  0  0  0
H  26.94916054  -6.002834021  -12.2538113  -3  448  0  0  0
H  32.28316054  -4.230534021  -11.3652113  -3  449  0  0  0
H  30.34536054  -2.606634021  -12.0882113  -3  449  0  0  0
H  32.20526054  -1.776534021  -10.4255113  -3  449  0  0  0
H  32.96486054  -6.085534021  -9.634211308  -3  450  0  0  0
H  31.23396054  -7.940634021  -10.3159113  -3  450  0  0  0
H  32.17366054  -7.862734021  -7.861911308  -3  450  0  0  0
H  14.70616054  -2.536134021  -12.1710113  -3  451  0  0  0
H  15.64826054  -0.082134021  -12.2538113  -3  451  0  0  0
H  20.11066054  5.281065979  -14.0261113  -3  452  0  0  0
H  22.56466054  4.341365979  -13.9482113  -3  452  0  0  0
H  18.25556054  3.550165979  -14.7078113  -3  453  0  0  0
H  16.40056054  4.231865979  -12.9768113  -3  453  0  0  0
H  16.47846054  1.777865979  -13.9165113  -3  453  0  0  0
H  18.17286054  9.565765979  -12.0882113  -3  454  0  0  0
H  20.03276054  10.39596598  -10.4255113  -3  454  0  0  0
H  22.48676054  10.31806598  -11.3652113  -3  455  0  0  0
H  24.42466054  8.694265979  -12.0882113  -3  455  0  0  0
H  15.71886054  8.623665979  -12.1710113  -3  456  0  0  0
H  14.77666054  6.169665979  -12.2538113  -3  456  0  0  0
H  16.47846054  -10.39463402  -1.744011308  -3  457  0  0  0
H  20.79236054  -12.17183402  3.550988692  -3  458  0  0  0
H  18.33836054  -12.25463402  2.608788692  -3  458  0  0  0
H  20.11066054  -11.36603402  7.942788692  -3  459  0  0  0
H  21.73446054  -12.08903402  6.004988692  -3  459  0  0  0
H  22.56466054  -10.42633402  7.864888692  -3  459  0  0  0
H  18.25556054  -9.635034021  8.624488692  -3  460  0  0  0
H  16.40056054  -10.31673402  6.893588692  -3  460  0  0  0
H  12.16936054  -9.635034021  -2.535311308  -3  461  0  0  0
H  14.02446054  -10.31673402  -0.804311308  -3  461  0  0  0
H  12.08656054  -8.692934021  -0.081311308  -3  461  0  0  0
H  9.632560546  -6.085534021  3.550988692  -3  462  0  0  0
H  11.36356054  -7.940634021  4.232688692  -3  462  0  0  0
H  10.42386054  -7.862734021  1.778688692  -3  462  0  0  0
H  12.16936054  -8.622334021  8.624488692  -3  463  0  0  0
H  12.08656054  -9.564434021  6.170488692  -3  463  0  0  0
H  13.94656054  -10.39463402  7.833288692  -3  463  0  0  0
H  10.31426054  -1.854434021  -11.3652113  -3  464  0  0  0
H  12.25216054  -3.478234021  -12.0882113  -3  464  0  0  0
H  10.39216054  -4.308434021  -10.4255113  -3  464  0  0  0
H  9.632560546  0.000665979  -9.634211308  -3  465  0  0  0
H  11.36356054  1.855765979  -10.3159113  -3  465  0  0  0
H  9.632560546  6.086865979  -8.621511308  -3  466  0  0  0
H  10.42386054  4.309765979  -10.3938113  -3  466  0  0  0
H  34.73716054  1.746165979  7.864888692  -3  467  0  0  0
H  36.51436054  -3.548834021  3.550988692  -3  468  0  0  0
H  36.59716054  -2.606634021  6.004988692  -3  468  0  0  0
H  35.70856054  -7.940634021  4.232688692  -3  469  0  0  0
H  36.43156054  -6.002834021  2.608788692  -3  469  0  0  0
H  34.76886054  -7.862734021  1.778688692  -3  469  0  0  0
H  33.97766054  -8.622334021  6.087688692  -3  470  0  0  0
H  34.65926054  -6.891434021  7.942788692  -3  470  0  0  0
H  33.97766054  2.537465979  12.1739887  -3  471  0  0  0
H  34.65926054  0.806465979  10.3188887  -3  471  0  0  0
H  33.03546054  0.083465979  12.2567887  -3  471  0  0  0
H  28.57306054  -5.279734021  14.0290887  -3  472  0  0  0
H  26.11906054  -4.340034021  13.9511887  -3  472  0  0  0
H  30.42806054  -3.548834021  14.7107887  -3  473  0  0  0
H  32.28316054  -4.230534021  12.9797887  -3  473  0  0  0
H  32.20526054  -1.776534021  13.9194887  -3  473  0  0  0
H  30.51086054  -9.564434021  12.0911887  -3  474  0  0  0
H  28.65096054  -10.39463402  10.4284887  -3  474  0  0  0
H  24.34186054  -9.635034021  9.637188692  -3  475  0  0  0
H  26.19696054  -10.31673402  11.3681887  -3  475  0  0  0
H  24.25906054  -8.692934021  12.0911887  -3  475  0  0  0
H  32.96486054  -8.622334021  12.1739887  -3  476  0  0  0
H  33.90706054  -6.168334021  12.2567887  -3  476  0  0  0
H  34.73716054  -7.831134021  10.3967887  -3  476  0  0  0
H  26.19696054  11.36736598  14.0290887  -3  477  0  0  0
H  28.65096054  10.42766598  13.9511887  -3  477  0  0  0
H  24.34186054  9.636365979  14.7107887  -3  478  0  0  0
H  22.48676054  10.31806598  12.9797887  -3  478  0  0  0
H  36.51436054  9.636365979  2.538288692  -3  479  0  0  0
H  36.59716054  8.694265979  0.084288692  -3  479  0  0  0
H  38.36946054  4.231865979  -5.278911308  -3  480  0  0  0
H  38.29156054  1.777865979  -4.339211308  -3  480  0  0  0
H  39.05116054  6.086865979  -3.548011308  -3  481  0  0  0
H  37.32016054  7.941965979  -4.229711308  -3  481  0  0  0
H  38.25986054  7.864065979  -1.775711308  -3  481  0  0  0
H  36.43156054  6.169665979  -9.563611308  -3  482  0  0  0
H  34.76886054  4.309765979  -10.3938113  -3  482  0  0  0
H  33.97766054  0.000665979  -9.634211308  -3  483  0  0  0
H  35.70856054  1.855765979  -10.3159113  -3  483  0  0  0
H  36.43156054  -0.082134021  -8.692111308  -3  483  0  0  0
H  36.51436054  8.623665979  -8.621511308  -3  484  0  0  0
H  36.59716054  9.565765979  -6.167511308  -3  484  0  0  0
H  35.70856054  14.02826598  1.856588692  -3  485  0  0  0
H  36.43156054  12.09036598  3.480388692  -3  485  0  0  0
H  34.76886054  13.95036598  4.310588692  -3  485  0  0  0
H  33.97766054  14.70996598  0.001488692  -3  486  0  0  0
H  34.65926054  12.97896598  -1.853611308  -3  486  0  0  0
H  30.51086054  15.65206598  -6.002011308  -3  487  0  0  0
H  28.65096054  16.48226598  -4.339211308  -3  487  0  0  0
H  24.34186054  15.72266598  -3.548011308  -3  488  0  0  0
H  26.19696054  16.40436598  -5.278911308  -3  488  0  0  0
H  24.25906054  14.78046598  -6.002011308  -3  488  0  0  0
H  32.96486054  14.70996598  -6.084711308  -3  489  0  0  0
H  34.73716054  13.91866598  -4.307611308  -3  489  0  0  0
H  31.23396054  14.02826598  -7.939811308  -3  490  0  0  0
H  32.17366054  13.95036598  -10.3938113  -3  490  0  0  0
H  26.87866054  9.636365979  -12.1710113  -3  491  0  0  0
H  27.82076054  12.09036598  -12.2538113  -3  491  0  0  0
H  21.80516054  12.17316598  -9.634211308  -3  492  0  0  0
H  23.53606054  14.02826598  -10.3159113  -3  492  0  0  0
H  22.59636054  13.95036598  -7.861911308  -3  492  0  0  0
H  24.25906054  15.65206598  12.0911887  -3  493  0  0  0
H  26.11906054  16.48226598  10.4284887  -3  493  0  0  0
H  30.42806054  15.72266598  9.637188692  -3  494  0  0  0
H  28.57306054  16.40436598  11.3681887  -3  494  0  0  0
H  30.51086054  14.78046598  12.0911887  -3  494  0  0  0
H  19.50186054  8.616965979  4.611988692  -5  82  0  0  0
H  19.50186054  4.611165979  8.617788692  -5  122  0  0  0
H  19.53306054  9.608365979  4.991588692  -5  135  0  0  0
H  13.96436054  6.615265979  -3.244611308  -5  179  0  0  0
H  19.53306054  4.990765979  9.609188692  -5  194  0  0  0
H  20.05056054  12.70166598  3.247588692  -5  211  0  0  0
H  13.96436054  -3.245434021  6.616088692  -5  264  0  0  0
H  11.64086054  4.291965979  -3.244611308  -5  271  0  0  0
H  13.96426054  8.927065979  -5.556311308  -5  273  0  0  0
H  20.05056054  3.246765979  12.7024887  -5  288  0  0  0
H  20.05056054  15.01336598  5.559288692  -5  310  0  0  0
H  19.53306054  13.26926598  8.652488692  -5  311  0  0  0
H  11.64086054  -3.245434021  4.292788692  -5  380  0  0  0
H  13.96426054  -5.557134021  8.927888692  -5  382  0  0  0
H  9.329160546  4.291965979  -5.556311308  -5  388  0  0  0
H  11.64086054  8.927065979  -7.879711308  -5  391  0  0  0
H  20.05056054  5.558465979  15.0141887  -5  412  0  0  0
H  19.53306054  8.651665979  13.2700887  -5  413  0  0  0
H  21.77706054  13.26926598  10.8964887  -5  443  0  0  0
